                                  MODFLOW-NWT-SWR1 
      U.S. GEOLOGICAL SURVEY MODULAR FINITE-DIFFERENCE GROUNDWATER-FLOW MODEL
                             VERSION 1.1.4 4/01/2018
                    BASED ON MODFLOW-2005 VERSION 1.12.00 02/03/2017

 LIST FILE: data-based.lst
                         UNIT   11

 OPENING data-based.cbc
 FILE TYPE:DATA(BINARY)   UNIT    9   STATUS:REPLACE
 FORMAT:BINARY                 ACCESS:SEQUENTIAL          

 OPENING data-based.dis
 FILE TYPE:DIS   UNIT   12   STATUS:OLD    
 FORMAT:FORMATTED              ACCESS:SEQUENTIAL          

 OPENING data-based.bas
 FILE TYPE:BAS6   UNIT   13   STATUS:OLD    
 FORMAT:FORMATTED              ACCESS:SEQUENTIAL          

 OPENING data-based.oc
 FILE TYPE:OC   UNIT   39   STATUS:OLD    
 FORMAT:FORMATTED              ACCESS:SEQUENTIAL          

 OPENING data-based.fhd
 FILE TYPE:DATA   UNIT   37   STATUS:REPLACE
 FORMAT:FORMATTED              ACCESS:SEQUENTIAL          

 OPENING data-based.fdn
 FILE TYPE:DATA   UNIT   38   STATUS:REPLACE
 FORMAT:FORMATTED              ACCESS:SEQUENTIAL          

 OPENING data-based.nwt
 FILE TYPE:NWT   UNIT  133   STATUS:OLD    
 FORMAT:FORMATTED              ACCESS:SEQUENTIAL          

 OPENING data-based.upw
 FILE TYPE:UPW   UNIT  134   STATUS:OLD    
 FORMAT:FORMATTED              ACCESS:SEQUENTIAL          

 OPENING data-based.drn
 FILE TYPE:DRN   UNIT   22   STATUS:OLD    
 FORMAT:FORMATTED              ACCESS:SEQUENTIAL          

 OPENING data-based.rch
 FILE TYPE:RCH   UNIT   24   STATUS:OLD    
 FORMAT:FORMATTED              ACCESS:SEQUENTIAL          

 OPENING data-based.ob_hob
 FILE TYPE:HOB   UNIT   41   STATUS:OLD    
 FORMAT:FORMATTED              ACCESS:SEQUENTIAL          

 OPENING data-based.hob_out
 FILE TYPE:DATA   UNIT   42   STATUS:REPLACE
 FORMAT:FORMATTED              ACCESS:SEQUENTIAL          

 BAS -- BASIC PACKAGE, VERSION 1.1.4, 4/01/2018 INPUT READ FROM UNIT   13
 
 MODFLOW was compiled using mixed precision
 Precision of REAL variables:           6
 Precision of DOUBLE PRECISION variables:          15

 DISCRETIZATION INPUT DATA READ FROM UNIT   12
 # Discretization File created on 2020-10-10 by ModelMuse version 4.3.0.0.
 # Upper left corner: (190832.67081644, 188261.309746831)
 # Lower left corner: (200971.966418486, 174305.766593863)
 # Upper right corner: (220564.04535972, 209862.417768579)
 # Lower right corner: (230703.340961765, 195906.874615611)
 # Grid angle (in degrees counterclockwise): 36
    2 LAYERS        69 ROWS       147 COLUMNS
    1 STRESS PERIOD(S) IN SIMULATION
 MODEL TIME UNIT IS DAYS
 MODEL LENGTH UNIT IS METERS
  Confining bed flag for each layer:
   0   0

                     DELR =   250.000    

                     DELC =   250.000    



           TOP ELEVATION OF LAYER 1
 READING ON UNIT   12 WITH FORMAT: (FREE)              

            1           2           3           4           5           6           7           8           9          10
           11          12          13          14          15          16          17          18          19          20
           21          22          23          24          25          26          27          28          29          30
           31          32          33          34          35          36          37          38          39          40
           41          42          43          44          45          46          47          48          49          50
           51          52          53          54          55          56          57          58          59          60
           61          62          63          64          65          66          67          68          69          70
           71          72          73          74          75          76          77          78          79          80
           81          82          83          84          85          86          87          88          89          90
           91          92          93          94          95          96          97          98          99         100
          101         102         103         104         105         106         107         108         109         110
          111         112         113         114         115         116         117         118         119         120
          121         122         123         124         125         126         127         128         129         130
          131         132         133         134         135         136         137         138         139         140
          141         142         143         144         145         146         147
 ........................................................................................................................
   1    29.61       29.61       29.61       29.61       17.50       17.50       17.50       17.50       17.50       17.50    
        17.50       17.50       20.02       20.02       21.21       22.50       22.50       22.50       22.50       22.50    
        22.50       22.70       34.72       43.71       38.10       35.30       37.63       46.86       49.77       49.77    
        39.94       39.94       39.94       29.82       29.82       29.82       30.15       31.64       35.00       32.60    
        29.30       29.30       29.30       25.34       25.34       27.85       27.85       27.85       26.14       26.14    
        26.14       25.00       25.00       25.00       25.00       25.00       25.00       25.00       25.00       25.58    
        25.58       26.21       29.93       29.93       29.47       29.70       30.06       30.00       34.38       33.38    
        32.30       32.65       34.06       37.61       38.81       39.64       39.80       41.10       40.67       39.84    
        40.22       40.11       40.31       40.49       41.44       41.44       45.36       43.78       45.33       45.42    
        44.70       46.34       42.98       42.57       42.57       44.83       45.00       45.18       42.02       41.84    
        42.62       43.88       44.89       47.00       47.27       47.29       47.95       48.29       48.76       46.66    
        46.66       46.65       48.31       49.12       49.22       49.65       49.54       49.28       48.43       48.58    
        48.58       48.58       50.42       50.42       50.42       50.75       50.75       50.75       50.75       50.75    
        51.71       51.71       51.71       55.81       55.81       55.74       55.74       55.74       55.74       55.74    
        55.74       55.74       57.14       58.00       58.00       58.00       58.76    
   2    29.61       29.61       29.61       29.61       17.50       17.50       17.50       17.50       17.50       17.50    
        17.50       17.50       20.02       20.02       21.21       22.50       22.50       22.50       22.50       22.50    
        22.07       22.27       27.46       42.67       40.67       32.93       37.63       46.86       49.77       49.77    
        39.94       39.94       29.82       29.82       29.82       27.52       30.15       31.64       35.00       32.60    
        29.30       29.30       29.30       25.34       25.34       25.34       27.85       27.85       26.14       26.14    
        26.14       26.18       25.00       25.00       25.00       25.00       25.00       25.00       25.00       25.00    
        25.58       26.21       27.22       27.75       28.50       28.54       29.36       29.75       30.00       30.00    
        32.08       34.22       34.41       35.32       37.85       39.52       40.77       41.36       41.73       41.23    
        40.96       41.44       41.47       41.70       42.11       44.87       45.36       43.78       45.33       45.42    
        44.70       46.34       42.98       42.57       42.57       44.83       45.00       45.18       42.02       41.84    
        42.62       43.88       44.89       47.00       47.27       47.29       47.95       48.29       48.76       46.66    
        46.66       46.65       48.31       49.12       49.22       49.65       49.54       49.28       48.43       48.58    
        48.58       50.46       50.42       50.42       50.42       50.75       50.75       50.75       50.75       50.75    
        51.71       51.71       55.81       55.81       55.81       55.74       55.74       55.74       55.74       55.74    
        55.74       57.14       58.00       58.00       58.00       58.76       60.05    
   3    29.61       29.61       29.61       29.61       29.61       17.50       17.50       17.50       17.50       17.50    
        17.50       17.50       17.50       19.51       20.18       20.51       20.33       21.91       22.50       22.50    
        21.71       22.50       23.32       28.89       27.54       28.67       33.56       38.14       45.15       37.76    
        39.94       29.98       29.82       29.82       27.52       27.52       30.15       31.64       35.00       32.60    
        29.30       29.30       29.30       27.00       25.34       25.34       27.85       27.85       27.85       26.14    
        26.14       26.18       25.00       25.00       25.00       25.00       25.00       25.00       25.00       25.00    
        25.00       25.13       26.29       26.94       27.50       27.69       28.86       29.35       29.90       29.98    
        30.13       31.02       32.93       34.56       35.74       36.63       37.43       39.76       39.98       42.40    
        42.39       42.00       42.00       42.16       42.97       44.04       44.53       45.56       46.02       47.78    
        48.01       44.68       45.17       47.10       44.48       44.83       45.00       45.18       42.02       41.84    
        42.62       43.88       44.89       47.00       47.27       47.29       47.95       48.29       48.76       46.66    
        46.66       46.65       48.31       49.12       49.22       49.65       49.54       49.28       48.43       48.58    
        48.58       50.46       50.42       50.42       50.99       50.75       50.75       50.75       50.75       51.71    
        51.71       51.71       55.81       55.81       55.74       55.74       55.74       55.74       55.74       55.74    
        57.14       58.00       58.00       58.00       58.76       60.05       60.05    
   4    29.61       29.61       29.61       29.61       29.61       17.50       17.50       17.50       17.50       17.50    
        17.50       17.50       17.50       19.81       20.00       20.00       20.00       20.00       20.67       22.34    
        22.23       21.59       22.50       22.45       23.49       24.82       28.09       36.03       32.38       28.35    
        30.08       29.98       29.82       29.82       27.52       30.21       30.15       31.64       35.00       32.60    
        29.30       29.30       29.30       27.00       25.34       25.34       25.34       27.85       27.85       26.14    
        26.14       26.18       26.39       26.15       25.75       25.00       25.00       24.74       25.00       25.00    
        25.00       25.00       25.60       26.54       27.16       27.45       28.14       29.10       30.00       31.06    
        32.56       32.55       32.97       34.20       35.22       35.72       37.78       37.75       38.23       40.23    
        39.28       39.56       39.81       41.17       42.67       45.82       46.99       46.01       45.95       45.09    
        46.78       46.29       46.23       49.01       47.65       47.33       45.46       44.99       43.65       42.98    
        42.80       43.80       45.52       47.12       48.10       48.65       48.51       49.64       50.16       47.68    
        48.29       47.31       48.13       50.13       50.97       50.90       50.99       49.92       49.92       49.32    
        50.09       50.46       50.42       50.42       50.99       50.75       50.75       50.75       50.73       51.71    
        51.71       55.81       55.81       55.81       55.74       55.74       55.74       55.74       55.74       57.14    
        58.00       58.00       58.00       58.76       60.05       60.05       60.05    
   5    29.61       29.61       29.61       29.61       29.61       29.61       17.50       17.50       17.50       17.50    
        17.50       17.49       19.76       20.00       20.00       20.00       20.00       20.00       20.00       20.33    
        21.27       22.50       22.50       22.50       22.50       22.62       25.20       25.55       27.42       25.45    
        24.93       24.75       27.38       27.52       32.92       30.21       30.15       31.64       35.00       32.60    
        29.30       29.30       27.10       27.00       26.84       25.34       25.34       27.85       27.85       26.76    
        25.62       26.71       27.19       26.57       29.17       25.00       25.51       26.57       25.15       25.00    
        25.00       24.99       25.64       26.38       27.24       27.50       28.02       29.00       30.18       30.71    
        32.46       32.50       34.07       35.09       36.17       36.08       36.32       36.23       36.45       37.29    
        37.04       38.09       39.27       40.54       41.66       43.53       45.32       47.08       46.00       44.73    
        44.00       44.58       45.44       46.71       47.89       49.42       46.47       45.50       45.09       44.92    
        44.03       44.05       45.12       47.02       49.34       50.28       50.57       51.36       51.74       50.14    
        50.23       49.59       48.89       50.01       51.80       52.20       52.19       52.01       50.81       50.18    
        49.95       50.74       51.09       52.08       50.99       50.75       50.75       50.73       51.71       51.71    
        51.71       55.81       55.81       55.74       55.74       55.74       55.74       55.74       57.14       58.00    
        58.00       58.00       58.76       60.05       60.05       60.05       60.00    
   6    34.65       29.61       29.61       29.61       29.61       29.61       17.50       17.50       17.41       17.50    
        17.50       17.65       20.00       20.00       20.00       20.00       20.00       20.00       20.00       19.76    
        21.56       22.33       22.38       22.50       22.50       22.50       22.50       22.50       23.92       23.94    
        25.00       25.00       25.75       39.65       32.92       30.21       30.15       31.64       35.00       32.60    
        29.30       29.30       27.10       27.00       26.84       25.34       25.34       26.75       26.78       25.74    
        25.00       24.58       24.52       24.66       25.00       24.98       25.00       24.96       25.00       25.00    
        25.00       25.14       26.04       26.76       27.50       27.48       27.54       28.79       29.69       30.00    
        31.30       32.21       32.70       33.09       32.63       33.14       32.96       33.81       34.79       35.74    
        36.63       38.80       40.33       40.74       40.78       43.55       42.72       43.75       45.17       44.45    
        44.00       44.00       45.28       46.00       46.89       47.80       48.30       47.91       46.23       46.63    
        46.44       45.29       44.73       46.64       49.17       50.60       51.91       53.07       53.71       52.74    
        52.12       51.52       50.62       50.63       53.18       53.33       52.84       51.98       51.99       51.54    
        51.65       52.45       54.56       54.28       52.19       52.84       50.73       50.73       51.71       51.71    
        55.81       55.81       55.81       55.74       55.74       55.74       55.74       57.14       58.00       58.00    
        58.00       58.76       60.05       60.05       60.05       60.00       60.64    
   7    34.65       34.65       33.30       29.61       29.61       29.61       20.62       18.66       17.74       17.49    
        17.76       20.00       20.00       20.00       20.00       20.00       20.00       20.00       20.18       21.95    
        21.69       21.92       22.37       22.50       22.50       22.50       22.50       22.50       22.51       22.99    
        24.03       24.65       25.00       26.41       49.56       46.31       33.11       36.92       35.23       29.57    
        27.65       27.63       27.10       27.00       26.84       25.19       24.96       25.30       25.51       25.00    
        25.00       24.57       24.28       24.65       25.00       25.00       25.00       25.00       25.00       25.00    
        24.97       25.98       27.24       27.53       28.32       29.37       29.22       29.39       30.00       30.00    
        30.00       29.97       31.77       32.22       32.50       32.50       32.47       33.37       34.01       35.20    
        35.88       38.63       39.28       40.73       39.99       40.16       40.20       40.79       41.17       41.65    
        44.05       44.04       43.38       44.50       46.98       47.64       49.40       49.10       47.82       49.65    
        48.94       47.67       45.82       47.61       50.08       51.78       55.63       56.65       56.42       54.93    
        55.20       52.97       52.17       50.67       51.40       54.00       54.15       52.70       53.28       54.19    
        53.15       54.82       55.67       55.98       53.69       52.98       50.81       50.76       51.71       51.71    
        55.81       55.81       55.74       55.74       55.74       55.74       57.14       58.00       58.00       58.00    
        58.76       60.05       60.05       60.05       60.00       60.64       60.64    
   8    34.65       34.65       34.65       33.30       34.24       34.24       25.87       19.84       19.02       18.38    
        19.70       20.00       20.00       20.00       20.00       20.00       20.00       20.00       21.15       22.54    
        22.12       21.78       21.86       22.50       22.50       22.50       22.50       22.50       22.50       22.50    
        23.51       24.96       24.90       24.85       27.45       30.14       47.37       41.09       32.36       28.96    
        27.50       26.55       25.40       25.19       24.52       25.00       25.00       24.77       25.00       25.00    
        24.01       24.22       23.90       24.11       24.45       24.78       24.99       25.00       25.00       25.00    
        25.37       26.47       27.50       28.15       28.92       29.86       30.00       29.97       30.00       30.10    
        30.11       30.61       31.52       32.50       32.50       32.50       32.50       32.86       33.77       34.79    
        34.92       36.82       37.67       37.25       40.35       39.91       40.87       41.00       41.99       42.00    
        42.80       42.71       43.16       44.86       46.00       46.39       47.58       48.00       48.00       47.90    
        48.54       49.00       47.77       47.47       50.16       51.55       53.74       56.46       56.34       56.03    
        55.71       53.04       52.94       53.12       51.47       52.41       54.74       54.55       56.82       57.05    
        54.73       57.08       56.89       56.50       55.32       54.32       53.70       54.57       51.99       53.38    
        55.81       55.81       55.74       55.74       55.74       57.14       58.00       58.00       58.00       58.76    
        60.05       60.05       60.05       60.00       60.64       60.64       60.64    
   9    34.65       34.65       34.65       34.65       33.30       27.56       22.46       21.09       19.93       19.60    
        20.00       20.00       20.00       19.52       21.52       21.57       21.21       20.99       21.68       22.50    
        21.90       21.40       21.03       22.50       22.50       22.50       22.50       22.39       22.50       22.50    
        22.57       23.58       24.32       24.49       24.77       24.91       26.99       35.41       38.75       31.83    
        28.65       26.70       25.72       25.00       24.29       25.00       25.00       25.00       23.98       25.66    
        24.23       23.55       23.07       23.77       24.19       24.90       25.00       25.00       25.00       25.26    
        26.66       27.88       28.75       29.50       30.00       30.00       30.00       30.00       30.00       31.00    
        31.74       32.34       32.54       32.43       32.50       32.40       32.52       33.15       33.89       34.52    
        35.06       35.85       37.20       38.52       40.31       41.36       41.15       41.74       42.09       41.73    
        41.20       40.62       41.39       44.46       44.73       43.67       45.32       47.98       48.30       48.20    
        48.81       49.21       48.97       49.90       50.96       51.97       52.99       55.36       55.99       56.22    
        55.70       54.95       55.50       54.24       53.35       53.56       55.78       57.01       57.43       58.06    
        56.68       58.44       58.57       58.00       56.41       55.13       54.43       52.94       55.19       54.49    
        54.61       54.67       55.74       55.74       57.14       58.00       58.00       58.00       58.76       60.05    
        60.05       60.05       60.00       60.64       60.64       60.64       62.25    
  10    41.45       34.65       34.65       34.65       30.30       25.61       23.24       21.77       19.72       19.50    
        20.00       20.00       20.00       20.00       20.46       27.21       25.92       25.02       22.99       27.58    
        29.27       29.01       23.52       24.86       22.50       22.50       22.50       21.97       22.50       22.19    
        22.44       22.53       23.42       23.64       24.05       24.03       24.59       26.02       31.14       34.11    
        29.54       27.64       27.44       25.78       25.07       24.38       25.00       22.90       26.65       25.72    
        23.21       22.50       22.50       23.13       23.69       24.35       25.00       25.00       25.00       25.41    
        26.73       27.71       29.61       30.02       30.00       30.01       30.00       30.00       30.19       30.73    
        31.62       32.50       32.54       32.50       32.50       32.50       33.99       34.36       34.75       34.97    
        35.39       36.31       36.94       38.50       39.15       39.93       41.75       41.76       41.39       40.26    
        40.00       40.00       40.37       40.90       41.90       42.77       44.26       45.64       49.37       48.43    
        49.05       50.10       49.80       50.50       51.48       53.07       53.45       54.80       56.02       56.94    
        57.37       57.47       58.08       55.17       54.42       53.75       56.04       57.95       58.19       59.14    
        59.93       58.85       59.02       57.38       56.75       56.47       55.28       53.72       55.95       57.05    
        56.85       56.98       56.10       57.14       58.00       58.00       58.00       58.76       60.05       60.05    
        60.05       60.00       60.64       60.64       60.64       62.25       62.25    
  11    41.45       41.45       38.42       38.42       28.58       23.32       22.22       21.45       23.07       20.00    
        19.60       19.24       22.17       22.10       22.00       21.16       21.97       22.39       19.45       22.91    
        24.24       24.00       29.77       31.11       28.62       22.79       21.64       20.93       21.55       22.10    
        22.50       22.50       22.50       23.01       23.26       23.18       23.50       24.19       26.95       27.97    
        29.56       32.32       30.69       28.29       27.35       25.22       24.86       23.83       23.72       25.31    
        22.53       22.50       22.50       22.50       22.89       23.88       24.52       24.78       25.14       25.27    
        26.33       26.68       26.91       27.50       28.27       28.86       29.85       30.05       30.00       29.95    
        30.00       31.04       31.17       32.11       32.51       33.45       34.84       35.04       35.00       35.32    
        35.96       36.44       36.79       37.11       38.41       38.70       39.31       40.11       40.18       40.00    
        40.00       39.93       40.76       42.01       42.90       44.43       45.46       46.19       46.72       48.81    
        50.85       51.78       52.59       52.15       52.24       52.98       54.02       54.28       56.27       57.93    
        59.17       59.12       57.85       55.69       55.90       55.89       57.29       57.06       58.68       60.07    
        61.00       59.89       59.52       58.08       57.16       57.13       54.95       53.92       57.39       57.95    
        57.87       57.95       57.78       57.85       58.00       58.00       58.76       60.05       60.05       60.05    
        60.00       60.64       60.64       60.64       62.25       62.25       61.73    
  12    41.45       41.45       41.45       33.96       29.56       25.60       26.91       26.02       25.11       19.00    
        19.31       20.00       23.56       26.97       30.96       21.63       20.19       19.85       20.25       20.00    
        20.00       20.38       28.36       22.82       23.09       20.43       20.35       20.62       20.97       21.44    
        22.20       22.30       22.51       22.50       22.62       22.54       22.50       22.50       25.07       27.39    
        31.44       40.26       39.17       34.66       33.13       26.26       25.48       23.09       22.35       22.50    
        22.50       22.50       22.50       22.53       22.82       23.68       24.35       24.70       25.00       25.00    
        25.40       25.65       26.35       26.46       27.50       27.64       28.57       28.73       29.34       29.47    
        30.00       30.00       29.93       31.03       31.90       32.91       34.52       35.00       35.30       36.55    
        37.30       37.32       37.50       37.28       38.02       38.07       38.06       38.87       39.84       40.00    
        40.19       41.22       42.29       43.74       44.40       44.61       48.38       48.77       49.68       51.14    
        51.87       52.44       53.23       54.03       54.11       54.10       54.91       55.48       55.93       57.42    
        59.33       59.28       58.42       56.00       56.02       57.17       57.91       58.00       59.47       59.94    
        61.00       60.79       60.28       57.79       58.00       58.10       55.18       54.88       57.01       58.23    
        58.79       58.80       58.68       58.66       58.87       58.76       60.05       60.05       60.05       60.00    
        60.64       60.64       60.64       62.25       62.25       61.73       61.73    
  13    42.34       46.75       46.75       39.37       34.82       30.79       32.82       37.15       34.77       18.43    
        18.34       18.30       24.98       29.35       41.76       33.25       29.68       23.97       26.39       25.35    
        21.50       20.15       20.00       20.00       20.00       20.00       20.00       20.00       20.15       20.58    
        21.35       21.57       22.50       22.50       22.50       22.50       22.50       22.55       23.75       26.31    
        30.54       40.38       40.37       40.15       37.18       34.57       27.11       23.93       22.50       22.50    
        22.50       22.50       22.50       23.08       23.27       23.80       24.37       25.00       25.00       25.00    
        25.00       25.00       25.44       25.87       26.87       27.37       27.45       27.50       27.49       28.71    
        29.44       29.82       30.01       31.20       32.08       32.63       33.87       34.85       35.08       37.21    
        37.50       37.50       37.59       37.90       38.68       38.94       38.77       39.03       39.08       39.80    
        40.08       41.35       42.29       43.10       43.55       44.68       45.29       48.08       51.00       52.46    
        56.19       53.07       54.53       56.34       57.03       56.56       58.01       58.31       58.94       58.91    
        60.04       58.69       58.12       56.62       58.13       60.02       59.82       59.79       60.67       60.94    
        61.27       61.46       60.80       59.55       58.71       59.08       57.90       57.12       56.11       57.64    
        59.00       59.21       59.37       59.65       60.13       60.10       60.05       60.05       60.00       60.64    
        60.64       60.64       62.25       62.25       61.73       61.73       61.73    
  14    42.34       42.34       47.33       43.74       43.40       29.59       47.86       45.49       46.67       16.83    
        17.47       17.36       37.54       37.77       47.10       47.36       41.24       30.88       30.21       29.92    
        22.59       21.99       21.48       20.74       20.00       20.00       20.00       20.00       20.00       20.02    
        20.71       21.16       21.74       22.02       22.14       22.50       22.50       22.50       22.50       23.56    
        25.33       30.82       34.51       34.84       26.20       37.93       25.22       22.57       22.50       22.50    
        22.50       22.50       23.15       23.67       24.20       24.69       24.87       25.00       25.00       25.00    
        25.00       25.00       25.00       25.11       26.19       26.90       27.32       27.50       27.47       28.49    
        29.38       30.00       29.94       31.74       32.50       32.59       33.77       34.64       35.00       35.23    
        36.53       37.50       37.50       38.04       38.69       39.77       39.51       39.79       40.86       40.70    
        40.25       40.91       41.21       42.03       41.98       44.52       46.64       47.14       47.05       48.60    
        50.15       52.50       55.55       56.24       56.63       58.00       59.52       60.03       60.18       60.30    
        61.07       60.72       60.17       56.83       56.82       60.00       60.56       61.10       61.18       61.44    
        62.10       62.16       61.42       61.26       60.46       59.96       58.66       58.36       56.96       57.08    
        59.16       59.81       60.20       60.40       61.05       59.99       60.00       60.00       60.64       60.64    
        62.25       62.25       62.25       61.73       61.73       61.73       61.73    
  15    41.50       41.50       40.77       50.31       37.97       36.19       51.85       50.62       44.92       17.02    
        16.79       17.99       24.39       42.43       46.04       52.19       54.29       44.13       42.34       31.83    
        26.81       26.57       24.28       22.03       21.02       20.63       20.00       19.94       20.01       20.00    
        20.24       20.98       21.68       22.05       22.50       22.50       22.50       22.50       22.50       22.50    
        22.50       23.23       23.97       24.03       23.16       24.45       22.96       22.50       22.50       22.50    
        22.50       22.42       23.14       23.91       24.80       25.00       25.00       25.00       25.00       25.00    
        25.00       25.00       25.00       25.33       26.37       26.92       27.25       27.50       28.15       29.25    
        29.96       30.71       32.08       32.80       33.67       34.31       34.78       35.00       35.00       35.00    
        35.00       35.64       37.67       37.77       38.01       39.00       40.00       39.99       39.90       40.88    
        41.00       41.07       41.05       41.64       42.84       44.28       45.17       46.31       48.04       48.42    
        49.82       54.03       55.09       55.54       55.19       58.33       58.68       60.69       61.49       62.15    
        62.48       62.16       60.06       57.59       58.43       57.85       59.28       59.20       61.13       61.63    
        62.80       62.98       62.84       62.69       61.72       61.27       59.70       58.93       58.02       58.20    
        57.86       59.43       60.82       60.87       61.95       62.51       60.92       60.10       60.64       60.64    
        62.25       62.25       61.73       61.73       61.73       61.73       61.73    
  16    44.74       41.73       42.90       37.07       34.88       44.71       51.52       52.65       53.15       19.71    
        18.47       18.25       17.20       55.19       41.50       56.50       57.50       53.73       43.43       47.97    
        34.05       30.64       32.49       30.56       22.94       22.24       20.90       20.71       20.48       20.36    
        20.31       20.95       21.73       22.50       22.50       22.50       22.50       22.50       22.50       22.50    
        22.50       22.50       22.50       22.50       22.50       22.50       22.50       22.50       22.50       22.50    
        22.50       22.43       23.35       24.22       25.03       25.00       25.00       24.99       25.76       25.58    
        25.37       25.00       25.00       25.30       26.05       26.75       27.50       27.52       28.36       29.86    
        30.10       31.33       32.70       33.80       34.66       35.00       35.12       35.20       36.09       35.00    
        35.00       35.00       35.00       35.52       36.83       37.50       39.13       40.12       41.00       41.29    
        41.34       41.84       41.96       42.07       43.12       43.74       44.62       45.32       46.44       48.12    
        49.52       50.81       52.41       52.66       54.54       56.21       56.94       58.88       60.47       62.03    
        63.06       62.59       60.67       58.51       59.66       60.30       58.95       59.88       59.94       60.75    
        63.03       63.00       63.00       63.00       62.61       61.74       60.93       60.24       56.87       59.57    
        60.52       61.01       62.20       62.36       62.45       62.00       61.83       61.43       62.09       62.25    
        62.25       61.73       61.73       61.73       61.73       61.91       61.91    
  17    50.05       45.06       48.08       41.93       40.13       38.09       43.06       52.50       57.17       55.95    
        26.97       17.88       18.05       16.64       21.42       42.60       54.81       60.02       61.43       54.90    
        42.67       43.17       41.52       46.87       27.83       23.05       22.03       21.92       21.51       21.48    
        21.45       21.91       22.28       22.50       22.50       22.50       22.50       22.50       22.50       22.50    
        21.91       22.50       22.50       22.50       22.50       22.50       22.50       22.50       22.50       22.37    
        22.39       22.49       23.15       24.07       24.82       25.00       25.00       25.59       26.76       26.78    
        26.46       25.66       25.00       25.88       26.80       27.40       27.71       28.02       29.02       29.81    
        29.94       31.79       33.08       35.04       35.00       35.00       36.63       40.00       40.35       39.21    
        37.49       35.09       35.00       35.00       35.76       36.90       37.76       39.61       41.81       42.57    
        42.00       42.11       41.89       42.09       42.88       43.63       44.48       45.19       45.88       46.35    
        48.10       51.04       50.74       51.76       53.89       54.30       55.26       56.30       59.15       62.29    
        61.87       61.48       61.75       60.59       61.12       61.52       60.98       60.28       60.84       63.23    
        62.97       63.00       63.00       62.71       62.05       61.16       59.92       58.64       57.62       57.94    
        61.24       61.98       62.78       63.01       63.00       62.88       63.00       62.93       62.32       62.01    
        61.73       61.73       61.73       61.91       61.91       61.91       61.91    
  18    47.93       53.50       53.28       50.39       48.56       44.79       42.38       59.18       64.40       66.95    
        67.41       20.46       20.65       19.08       20.00       20.15       20.88       22.15       31.16       38.47    
        46.89       52.01       46.94       42.89       31.96       28.58       23.72       23.23       22.26       22.17    
        22.12       22.51       22.50       22.46       22.35       22.50       24.79       23.27       23.46       21.75    
        22.00       22.50       22.50       22.50       22.50       22.46       22.84       22.49       24.18       24.50    
        24.15       24.17       24.09       24.67       24.91       25.98       26.48       27.47       30.31       29.89    
        27.37       27.41       26.25       26.71       27.37       27.85       28.69       28.89       29.38       30.00    
        29.97       31.34       32.41       35.04       34.93       35.03       36.00       37.62       39.19       40.00    
        39.21       38.65       37.30       36.00       35.80       36.81       37.43       39.50       42.94       44.09    
        45.15       46.73       44.17       44.58       44.50       45.43       45.84       46.41       47.25       47.31    
        47.83       47.86       48.76       51.28       52.19       53.93       55.36       57.12       57.53       59.53    
        60.48       60.53       61.60       62.24       62.17       62.69       61.88       61.03       60.77       62.23    
        63.18       63.00       63.00       63.08       61.07       60.44       59.01       58.34       58.00       57.86    
        59.74       62.42       63.00       63.00       63.00       63.00       62.84       61.96       62.00       61.97    
        61.91       61.91       61.91       61.91       61.91       61.91       59.38    
  19    40.33       49.65       53.44       53.93       52.71       51.91       53.00       47.52       52.02       56.59    
        60.19       42.83       24.14       19.89       20.00       20.00       20.35       21.01       21.40       21.58    
        45.53       62.45       57.79       46.74       31.93       32.63       30.25       27.74       23.29       22.50    
        22.51       23.79       23.50       23.00       23.29       24.74       35.77       37.54       33.24       29.48    
        25.30       23.08       22.72       22.52       23.71       24.34       24.87       24.83       25.61       27.47    
        25.62       25.18       24.79       25.03       25.83       27.09       27.93       29.51       29.77       29.20    
        27.50       28.12       27.60       27.48       27.47       28.55       29.96       30.47       31.34       30.86    
        31.41       31.97       32.50       33.10       34.54       34.95       35.76       37.32       38.34       40.00    
        40.00       40.00       38.36       37.50       37.00       37.47       38.84       40.00       42.67       43.76    
        46.38       47.50       47.46       46.76       45.81       46.55       47.66       48.28       48.66       48.80    
        48.80       48.92       49.35       49.97       51.19       53.72       57.35       59.29       58.03       58.48    
        59.03       60.00       62.63       63.21       63.32       63.34       61.81       61.73       62.02       61.87    
        63.00       63.13       63.15       63.15       62.72       62.19       60.53       59.78       58.03       57.91    
        59.03       62.20       63.03       62.87       63.00       63.00       62.41       61.99       63.14       62.61    
        62.30       61.91       61.91       61.91       59.38       59.38       59.38    
  20    39.96       43.45       49.46       52.98       58.47       56.03       55.38       51.57       50.80       49.72    
        49.72       42.03       35.95       25.48       24.49       22.72       19.10       19.74       20.53       21.85    
        30.72       52.63       57.93       51.28       37.81       29.15       26.46       25.28       23.89       22.48    
        25.28       29.96       29.90       24.55       25.02       25.69       31.61       36.18       44.23       43.42    
        44.14       24.29       24.38       24.39       25.75       50.50       36.10       27.73       26.65       28.67    
        27.36       27.89       27.04       27.81       27.28       28.15       31.57       34.49       38.88       36.35    
        31.20       29.72       29.04       28.76       28.83       29.46       30.61       32.05       34.63       33.12    
        32.56       32.59       33.04       33.99       34.87       35.00       35.33       37.17       38.67       39.47    
        40.00       40.00       40.00       37.04       36.94       38.28       40.44       40.74       41.19       42.42    
        44.84       47.89       47.62       47.71       48.08       48.26       50.23       50.30       50.43       50.86    
        52.29       51.49       51.42       50.50       52.09       55.92       61.36       61.27       60.68       60.03    
        60.91       61.58       62.49       63.69       64.30       63.84       62.71       62.14       62.00       62.00    
        62.63       63.33       63.97       63.86       63.46       63.13       60.70       59.75       59.01       59.27    
        58.77       61.14       62.24       62.31       63.04       62.82       61.85       61.95       62.08       64.09    
        62.45       61.90       61.90       59.38       59.38       59.38       59.38    
  21    38.68       40.99       46.25       49.57       54.42       63.40       61.27       54.62       52.80       51.07    
        55.57       50.90       52.60       55.75       47.75       45.01       16.35       18.34       20.00       20.69    
        23.17       37.35       46.52       50.71       36.15       28.15       25.00       24.67       23.73       24.16    
        25.77       36.86       38.13       34.64       34.12       31.57       39.65       40.96       42.27       54.00    
        52.59       30.58       27.94       26.70       27.72       32.24       39.79       34.89       35.81       35.98    
        32.10       34.25       31.69       31.88       29.63       30.19       48.98       49.84       37.25       34.79    
        32.11       30.68       30.24       29.81       29.66       30.00       31.17       34.41       35.00       35.00    
        35.06       35.06       34.98       35.00       35.00       35.00       35.29       36.57       36.98       37.05    
        39.06       40.00       40.48       40.44       40.98       41.48       42.91       43.67       42.30       43.49    
        44.50       44.77       47.50       47.53       48.08       48.98       50.09       51.45       53.26       54.33    
        57.01       55.26       55.33       52.83       54.38       54.40       58.05       61.60       61.18       61.61    
        62.16       62.76       62.75       63.94       64.94       64.99       64.02       63.20       62.68       63.98    
        64.12       64.11       64.47       64.36       64.00       62.84       60.59       60.40       62.12       60.77    
        60.29       59.80       60.07       62.42       62.45       61.66       59.94       62.18       63.04       63.22    
        62.27       60.98       59.38       59.38       59.38       55.71       55.71    
  22    39.76       40.08       43.41       44.80       51.94       56.82       61.95       55.26       50.44       45.00    
        40.95       52.59       58.79       55.72       53.23       39.93       24.48       16.76       19.71       19.94    
        20.44       20.25       33.12       33.39       31.86       26.73       25.00       25.00       24.39       24.58    
        25.00       26.09       30.24       39.41       39.54       40.24       42.78       45.17       47.31       50.72    
        41.66       39.79       38.78       34.65       35.92       33.65       33.45       34.98       45.93       45.16    
        54.31       53.17       56.07       45.79       34.39       32.08       38.04       38.90       43.57       35.32    
        32.41       30.72       30.85       30.31       30.71       31.09       31.39       33.06       32.29       33.21    
        33.45       34.78       34.66       35.00       35.00       35.00       35.00       35.60       35.76       35.51    
        36.68       37.53       40.00       40.21       42.18       42.63       45.14       45.00       44.75       46.31    
        44.93       45.06       46.86       47.50       47.39       49.09       50.56       52.51       54.10       55.15    
        55.38       56.26       57.27       58.25       57.82       57.44       57.10       60.32       60.92       60.91    
        61.44       62.87       65.16       65.90       64.62       64.14       63.90       63.53       63.34       63.88    
        65.07       65.00       65.00       65.07       64.38       62.48       61.07       61.76       63.23       63.16    
        61.83       59.91       61.04       60.83       61.62       60.83       59.82       62.39       62.63       62.11    
        61.35       59.14       58.54       55.71       55.71       55.71       55.71    
  23    40.00       39.98       42.72       55.04       62.64       58.53       59.64       55.60       53.00       45.49    
        39.08       35.51       44.45       31.25       30.03       40.34       56.17       19.57       19.46       19.64    
        19.70       19.28       19.76       21.60       27.28       27.28       25.79       28.05       27.11       25.48    
        26.17       25.00       24.79       28.63       29.08       33.19       35.00       38.87       36.12       35.79    
        32.57       32.81       37.01       40.83       41.86       42.19       39.80       39.21       41.13       44.76    
        47.35       47.37       44.59       42.55       37.74       35.66       34.33       37.43       37.50       37.50    
        36.07       36.29       34.07       32.26       32.09       31.92       32.50       32.50       32.22       32.27    
        32.18       32.53       33.83       34.87       35.09       34.96       34.74       35.06       34.97       35.00    
        35.72       36.99       37.95       37.58       39.56       42.45       45.00       45.00       45.41       46.18    
        45.45       46.89       47.50       47.50       47.65       48.83       50.20       52.50       52.62       53.11    
        53.20       55.53       57.06       59.75       61.17       61.27       61.03       61.41       62.90       62.35    
        61.68       62.93       64.61       64.86       66.39       66.88       64.31       63.83       63.94       65.18    
        65.20       65.18       65.00       64.28       63.43       61.89       63.34       63.62       63.74       63.32    
        61.43       60.98       61.86       61.29       60.42       60.03       58.78       60.56       60.14       60.03    
        58.90       58.31       57.04       55.71       55.71       55.71       55.71    
  24    41.26       41.34       42.81       56.03       55.45       53.17       48.75       52.46       47.48       46.05    
        49.69       46.98       26.51       25.04       26.86       30.27       42.01       35.70       24.13       31.40    
        21.10       20.00       20.00       19.15       30.95       29.84       33.84       35.86       36.04       30.76    
        31.26       27.85       28.09       26.61       27.50       27.29       31.00       38.29       32.32       32.50    
        32.50       32.50       31.93       41.00       44.22       45.40       45.67       47.08       45.48       46.45    
        49.22       50.27       46.85       46.30       42.48       41.05       38.54       37.58       36.52       36.53    
        37.50       37.68       38.75       36.57       34.90       32.44       31.96       32.84       33.81       31.28    
        31.13       32.16       32.50       32.96       32.43       33.12       33.20       33.30       33.62       34.84    
        35.34       36.43       37.51       37.50       38.93       42.28       43.24       43.65       45.00       45.41    
        46.04       46.09       47.62       47.50       47.67       48.84       49.02       50.35       49.43       50.00    
        51.17       56.01       58.80       61.51       62.97       64.02       64.16       63.32       63.96       64.03    
        64.14       65.03       64.54       65.35       65.89       66.04       66.00       65.91       64.71       65.54    
        66.02       66.00       65.24       64.96       63.86       63.25       63.98       64.00       63.64       62.23    
        62.20       62.58       62.54       61.88       60.27       59.26       58.17       57.82       56.89       56.66    
        56.23       55.99       55.29       55.09       55.09       55.09       59.14    
  25    46.92       52.54       50.98       56.13       54.40       51.72       52.33       49.97       50.44       51.83    
        57.41       51.34       34.17       25.00       25.00       24.74       24.57       24.41       25.32       24.89    
        21.72       20.36       20.00       20.00       17.69       21.16       34.31       45.71       47.89       41.42    
        41.55       37.36       36.75       32.85       31.21       28.99       29.90       30.33       31.42       31.77    
        31.47       31.72       32.50       32.08       34.64       37.88       43.18       42.93       46.87       49.71    
        50.53       50.11       50.00       49.70       47.58       45.67       39.71       35.27       34.73       35.00    
        34.41       38.44       41.99       40.32       37.92       32.70       31.16       30.00       30.00       29.82    
        30.24       31.43       32.08       32.50       32.50       32.50       32.50       32.50       32.50       33.59    
        35.13       35.78       36.78       37.24       38.10       39.57       41.04       41.66       42.72       44.04    
        45.13       44.85       44.43       45.85       46.78       47.75       47.97       46.89       47.10       49.17    
        51.53       53.63       56.14       59.39       57.98       63.13       62.00       65.62       64.74       64.01    
        64.10       64.99       65.27       65.89       66.00       65.83       65.43       65.89       67.06       66.40    
        66.57       66.39       65.71       65.03       64.04       64.38       64.99       64.10       63.75       63.29    
        63.10       63.12       63.07       61.51       59.10       57.90       59.66       60.22       59.94       60.43    
        60.49       61.32       61.60       61.33       61.33       59.14       59.14    
  26    68.23       61.96       55.65       67.17       62.44       57.38       59.25       62.22       53.15       39.00    
        27.79       28.41       25.05       25.00       25.00       24.47       24.81       24.65       23.17       22.14    
        20.99       21.01       20.50       20.00       19.48       20.57       26.74       40.86       44.46       48.46    
        45.71       40.65       37.94       36.22       35.08       34.33       34.53       32.99       40.96       41.31    
        44.08       35.69       35.76       41.13       34.27       35.52       37.13       38.15       39.89       41.09    
        43.77       45.25       50.27       50.32       49.98       48.27       41.87       40.84       40.54       38.48    
        33.54       32.31       31.77       32.76       31.19       31.03       30.00       30.00       30.00       30.00    
        30.28       31.35       31.98       32.36       32.50       32.50       32.50       32.50       32.50       32.83    
        34.62       35.00       35.62       35.94       36.90       37.29       38.72       39.60       40.51       41.64    
        43.36       42.22       42.50       43.06       43.87       44.90       44.88       44.94       46.76       49.17    
        50.85       52.50       52.51       54.97       55.73       56.30       57.83       63.26       63.37       60.67    
        63.89       64.14       65.06       66.00       66.00       65.87       65.10       65.15       66.28       66.91    
        67.00       67.03       66.10       65.48       64.95       64.95       65.34       63.93       63.99       63.91    
        63.81       63.59       63.33       61.67       59.52       57.81       61.22       61.14       61.02       61.43    
        61.97       62.25       63.02       61.36       59.14       59.14       59.14    
  27    68.23       39.88       38.01       48.07       50.55       68.81       46.70       32.53       28.90       27.39    
        26.81       25.34       24.70       24.11       25.05       23.79       24.28       24.18       24.48       26.10    
        20.20       21.25       20.11       20.00       20.00       20.00       20.50       30.63       32.62       42.53    
        46.33       33.67       30.96       30.37       29.51       33.34       32.76       38.56       46.35       54.72    
        51.91       45.58       47.25       48.69       38.43       35.35       37.18       39.28       41.63       43.89    
        44.05       45.96       46.93       48.75       50.19       46.69       45.23       47.41       47.10       37.96    
        35.35       34.38       33.82       32.20       31.00       30.00       30.00       30.00       30.00       29.99    
        30.29       31.27       32.00       32.42       32.50       32.50       32.50       32.50       32.50       33.46    
        34.47       35.00       35.00       34.99       36.27       36.92       37.53       38.58       39.52       40.00    
        41.09       41.74       42.11       42.50       42.35       43.75       44.51       45.08       46.27       47.50    
        47.80       49.98       50.27       52.35       52.13       54.06       55.15       58.55       62.09       59.22    
        59.92       63.28       65.27       66.02       66.00       66.00       65.79       65.84       65.83       67.03    
        67.00       67.00       66.18       65.91       65.97       66.18       66.10       64.88       65.00       64.96    
        64.51       64.00       63.02       61.01       58.87       58.87       61.34       62.06       62.50       63.31    
        63.75       63.81       63.21       60.60       57.54       57.54       58.41    
  28    29.14       29.14       29.26       31.04       34.09       36.84       32.97       29.85       28.36       27.50    
        26.68       25.08       29.39       38.57       37.95       37.26       24.33       24.16       29.57       27.91    
        23.31       20.60       20.00       20.00       20.00       20.00       20.00       20.79       22.10       35.94    
        31.34       27.82       26.65       27.32       26.75       27.32       28.54       32.33       37.78       41.18    
        41.64       39.62       43.07       39.61       33.36       31.99       41.10       45.08       44.54       48.18    
        49.57       51.88       51.08       51.43       52.49       51.13       43.89       48.35       49.70       45.73    
        43.80       39.25       40.36       36.94       31.60       30.00       30.00       29.60       29.63       29.90    
        30.71       31.65       32.53       33.63       33.25       33.44       33.46       34.14       34.05       34.28    
        34.77       34.04       35.00       34.89       35.83       36.84       37.51       38.17       39.23       39.75    
        40.28       41.35       41.86       42.36       42.50       43.12       44.21       44.94       45.93       47.07    
        47.50       47.82       48.86       50.32       51.78       51.22       51.24       56.85       57.19       56.74    
        61.57       63.26       64.24       65.51       65.04       64.93       65.73       66.00       66.16       66.72    
        67.00       67.00       67.00       67.02       66.92       66.91       66.12       65.13       64.97       64.33    
        63.44       62.73       61.81       60.56       59.59       59.98       61.61       63.05       63.81       64.42    
        64.69       64.12       62.87       60.58       56.67       58.41       58.41    
  29    31.67       31.67       31.26       29.70       28.47       26.89       27.17       27.42       31.49       30.00    
        27.59       25.03       27.43       37.61       52.16       50.93       30.18       27.80       34.90       31.38    
        27.29       20.78       20.00       20.00       20.00       20.00       20.68       21.55       22.09       22.32    
        22.41       24.65       24.80       24.87       25.12       27.50       27.50       29.13       29.92       29.78    
        29.86       30.99       31.54       29.19       29.32       29.17       38.49       42.58       50.63       49.61    
        52.76       53.88       53.35       50.11       42.94       34.42       29.95       31.91       32.29       49.55    
        45.05       43.58       43.02       39.73       30.82       29.70       30.00       34.41       35.94       31.65    
        31.67       31.18       32.05       33.32       40.33       40.62       41.49       42.06       39.91       39.71    
        40.75       35.14       35.00       35.27       36.53       37.50       38.05       38.77       39.60       40.06    
        40.79       41.60       42.21       42.55       43.15       44.35       44.94       45.57       46.50       47.50    
        47.29       47.47       48.50       49.67       53.10       54.78       52.53       52.97       53.22       53.57    
        58.28       60.92       63.15       62.93       63.59       63.86       65.12       65.53       66.07       66.42    
        66.95       67.00       67.13       67.00       67.01       66.97       66.25       66.06       65.29       64.76    
        63.48       61.06       61.09       63.43       63.50       61.89       62.24       63.78       64.67       65.37    
        65.08       64.03       62.72       60.06       56.84       60.69       60.69    
  30    31.67       31.67       36.32       33.55       36.28       30.48       29.64       28.05       26.91       27.15    
        25.02       25.00       24.63       27.76       34.33       32.61       28.85       28.26       35.47       27.69    
        23.05       20.00       20.00       20.00       20.00       20.62       26.15       26.59       22.29       25.08    
        25.72       28.32       30.32       28.53       28.78       27.60       27.98       28.24       30.02       30.00    
        30.00       30.00       30.00       29.51       27.63       27.86       28.88       29.63       31.85       31.66    
        34.41       32.07       39.66       33.99       30.73       27.96       26.84       26.92       26.96       29.58    
        28.42       29.68       30.54       31.23       29.00       28.17       29.29       39.60       37.19       32.86    
        31.31       30.52       30.87       31.85       34.22       36.22       40.86       40.46       40.13       39.76    
        42.50       38.82       35.53       36.01       37.07       37.67       38.43       39.18       39.79       40.34    
        41.21       41.96       42.52       43.24       44.36       45.19       45.79       46.36       47.25       47.70    
        49.18       49.66       51.45       52.46       58.61       63.20       60.49       57.89       56.01       54.90    
        55.31       55.80       57.68       63.62       63.55       64.70       64.67       65.00       65.99       66.53    
        67.07       67.42       67.55       67.39       67.08       66.88       66.50       66.00       64.80       63.52    
        62.11       61.77       63.94       64.43       63.46       62.19       63.52       64.60       65.38       66.08    
        65.36       64.05       62.55       60.44       57.67       62.33       62.33    
  31    44.00       44.00       44.00       39.12       37.50       39.25       37.39       37.15       35.26       32.69    
        31.89       26.63       25.38       25.00       25.13       26.20       24.94       24.24       23.41       22.21    
        21.76       20.00       20.17       20.00       20.00       19.51       28.84       28.36       22.06       25.16    
        22.60       29.21       35.66       32.86       36.39       33.19       33.28       31.85       32.42       31.31    
        29.91       30.00       29.92       29.57       27.72       27.50       27.49       28.92       29.87       30.07    
        29.00       27.50       27.12       26.43       26.07       24.89       25.00       25.42       25.98       27.18    
        27.50       27.07       27.50       27.73       27.45       27.50       28.04       30.00       30.67       30.08    
        30.03       30.00       29.94       30.99       32.19       32.44       33.85       34.16       35.98       36.46    
        39.04       36.75       36.42       36.71       37.60       38.46       39.35       39.92       39.91       41.07    
        41.92       42.42       43.35       44.39       45.10       46.50       47.24       47.55       49.01       49.76    
        51.29       52.26       52.40       56.29       55.28       61.90       63.39       62.93       60.11       57.51    
        55.82       58.06       57.26       57.40       63.26       64.38       65.61       65.95       66.14       66.11    
        67.17       67.83       67.95       67.82       67.58       67.04       66.99       66.04       65.24       62.99    
        65.11       63.21       64.95       65.13       63.54       64.72       65.38       65.87       66.32       66.23    
        65.19       64.14       62.37       60.20       60.00       63.46       63.46    
  32    53.47       53.47       53.47       47.09       43.40       48.74       41.09       38.05       37.95       37.29    
        32.87       27.18       26.58       25.58       25.00       24.83       25.31       26.87       25.59       25.02    
        19.82       20.16       20.63       20.58       20.26       19.66       20.31       25.76       20.06       20.35    
        21.61       24.91       33.43       46.29       45.41       39.20       34.75       35.61       33.72       30.21    
        29.05       29.35       30.01       30.09       27.99       27.23       29.37       29.85       31.15       34.84    
        30.83       28.81       25.68       25.00       25.00       25.00       25.00       25.00       25.28       26.67    
        27.26       27.18       28.41       27.93       28.58       27.70       28.24       29.20       29.80       30.00    
        30.00       30.00       30.00       30.96       31.95       32.34       32.50       32.50       32.98       34.34    
        34.81       34.94       35.90       36.44       37.58       39.15       39.77       40.97       41.60       41.85    
        42.41       42.96       43.86       45.00       46.25       47.57       48.57       50.16       51.28       51.18    
        53.35       53.43       53.61       59.09       58.51       57.91       65.20       65.00       62.37       60.59    
        59.41       60.17       63.03       62.51       59.20       58.83       62.93       63.89       66.94       67.77    
        68.16       68.18       68.05       68.00       67.88       67.32       67.06       66.39       64.24       65.52    
        65.73       65.33       65.15       66.03       65.20       65.75       66.12       65.85       66.99       66.57    
        65.19       64.13       62.00       59.69       59.90       62.98       63.54    
  33    52.91       52.91       52.91       53.04       59.00       63.79       53.22       52.45       45.73       42.87    
        31.43       30.68       29.27       27.64       26.97       31.34       39.51       42.55       38.23       27.95    
        20.17       20.51       20.62       21.04       22.06       20.98       20.41       19.68       20.08       19.81    
        20.63       21.11       20.80       29.68       41.96       37.31       28.56       31.01       31.59       28.07    
        26.93       28.01       33.29       27.79       25.91       31.96       40.87       38.96       33.81       33.80    
        33.77       28.14       25.00       25.00       25.00       25.00       25.00       25.14       25.43       26.49    
        27.48       29.57       30.00       30.00       30.06       28.87       28.41       28.88       29.27       29.69    
        29.92       30.00       30.27       31.24       32.01       32.50       32.50       32.50       32.50       32.80    
        34.39       35.00       35.00       35.41       37.46       39.45       41.04       42.50       42.50       43.25    
        43.74       44.10       44.62       44.94       46.51       48.25       49.68       50.00       51.59       58.20    
        60.55       57.23       59.27       62.50       61.00       60.01       65.41       65.00       64.92       65.08    
        62.77       63.88       62.81       65.37       63.63       61.35       60.88       65.19       66.86       67.94    
        68.83       68.66       68.29       68.00       68.00       67.81       67.17       65.84       65.05       66.10    
        66.96       66.55       67.69       66.24       64.75       66.71       67.00       67.00       67.08       65.69    
        63.65       62.01       60.03       63.29       60.19       61.42       64.25    
  34    65.07       65.07       65.07       60.29       66.02       65.70       61.19       61.31       61.02       57.52    
        41.89       37.97       33.42       34.40       31.67       33.40       44.64       41.49       43.26       30.83    
        20.26       21.71       21.18       25.39       30.33       28.47       24.25       22.49       25.00       25.86    
        22.40       22.38       22.50       21.48       21.92       22.87       22.16       22.50       22.50       22.53    
        23.12       23.81       24.47       24.61       25.00       24.68       27.71       27.41       27.36       25.44    
        25.54       24.71       25.00       25.00       25.00       25.00       25.00       25.00       25.13       25.84    
        26.67       27.40       27.30       28.99       27.57       28.02       27.78       28.51       28.87       29.34    
        29.84       29.98       30.84       32.03       32.50       32.50       32.25       32.59       32.93       34.52    
        34.70       35.00       35.00       35.11       37.25       38.78       40.32       42.03       42.86       44.43    
        44.75       44.74       45.08       45.12       46.26       47.60       49.15       49.87       51.36       58.51    
        62.57       63.64       63.61       63.66       63.42       62.03       62.39       63.88       65.00       65.63    
        65.20       65.57       65.00       66.20       66.90       65.40       60.72       62.78       64.14       67.14    
        68.40       68.35       68.27       69.04       68.29       67.94       67.16       66.21       65.98       66.78    
        67.16       67.51       67.32       66.62       65.89       67.05       67.20       67.06       66.41       64.00    
        61.83       63.64       62.59       63.90       61.86       59.56       63.99    
  35    58.14       58.14       72.72       72.50       72.31       70.79       68.91       67.41       65.74       59.91    
        53.14       49.49       49.98       49.95       43.74       41.05       42.31       42.70       32.86       21.21    
        20.24       21.12       21.88       28.99       31.95       30.20       27.86       26.72       31.22       27.95    
        26.79       24.30       22.50       22.06       22.50       22.50       22.50       22.50       22.50       22.50    
        22.50       22.50       23.57       24.54       25.00       25.00       25.00       25.00       25.00       24.57    
        25.00       25.00       25.00       25.00       25.00       25.00       25.00       25.00       25.00       25.32    
        26.36       27.05       27.50       27.50       27.50       27.50       27.50       28.00       28.56       29.09    
        29.69       29.78       30.44       31.64       32.50       32.95       34.40       34.95       35.39       36.33    
        35.51       35.77       35.46       36.15       37.65       38.88       39.96       42.05       43.69       45.00    
        45.42       46.41       47.32       46.85       47.38       48.73       50.08       51.03       53.10       57.19    
        64.80       65.00       65.00       65.00       65.00       65.00       65.00       64.96       65.70       66.65    
        66.74       67.40       66.37       67.50       67.44       66.50       63.74       63.40       61.78       62.79    
        64.05       65.53       65.59       67.71       69.02       68.00       67.81       65.81       66.07       67.00    
        67.31       67.74       67.66       67.14       66.91       67.31       67.85       66.85       65.26       66.55    
        65.41       64.28       64.45       64.16       61.44       59.79       63.65    
  36    58.14       58.14       62.45       68.85       72.54       72.14       71.65       74.03       70.98       68.11    
        59.34       56.55       51.60       49.54       44.65       42.07       39.80       39.95       34.27       26.56    
        20.44       21.32       21.09       40.97       34.66       30.97       33.61       36.11       32.05       30.25    
        26.98       25.51       22.36       22.50       22.50       22.50       22.50       22.50       22.50       22.50    
        22.50       22.65       23.72       25.00       24.41       25.00       25.00       25.00       25.00       25.00    
        25.00       25.00       25.00       25.00       25.00       25.00       25.00       25.00       25.04       25.54    
        26.30       27.50       27.50       27.50       27.50       27.50       27.50       27.76       28.58       29.26    
        29.72       30.00       30.12       31.47       32.36       32.64       34.90       35.79       37.53       37.50    
        37.50       37.38       37.03       37.50       37.54       38.85       40.42       42.50       42.97       45.18    
        45.08       47.68       47.50       47.50       47.66       49.48       52.31       52.97       54.88       57.58    
        60.81       63.26       64.52       64.23       65.00       65.00       65.00       64.99       66.04       67.50    
        67.59       67.94       67.74       67.88       67.57       67.50       65.69       64.01       65.24       67.37    
        68.15       67.52       66.96       66.47       67.59       67.83       66.94       65.69       68.20       67.65    
        67.88       68.05       68.00       67.54       67.42       67.80       68.09       66.97       67.68       68.05    
        66.04       64.74       65.09       64.83       62.45       60.07       64.11    
  37    73.38       73.38       59.80       61.62       66.35       73.01       75.00       75.21       74.95       72.15    
        70.28       69.25       64.13       65.84       53.37       48.96       43.55       45.44       51.21       20.36    
        20.59       22.15       21.15       44.66       45.47       38.00       20.50       20.50       21.90       22.04    
        21.76       22.96       22.69       22.50       22.70       25.39       23.56       22.70       22.50       22.50    
        22.72       24.35       25.01       26.15       24.74       24.92       26.16       26.78       24.65       24.75    
        25.00       25.00       25.00       25.00       25.00       25.00       25.02       25.38       26.18       26.93    
        27.28       27.44       27.56       27.54       27.70       27.69       27.88       28.35       28.72       29.48    
        29.89       29.98       30.62       31.62       32.50       32.50       33.86       35.00       36.40       37.50    
        37.72       38.29       37.50       37.50       37.50       37.52       38.59       41.16       41.84       42.80    
        43.71       45.14       45.91       47.15       48.01       50.51       52.41       53.73       54.97       56.23    
        56.90       57.68       60.11       60.29       63.42       63.23       64.89       65.00       65.80       67.24    
        67.50       68.18       68.48       68.66       68.25       68.07       67.82       67.46       66.44       67.97    
        68.89       68.43       68.22       68.23       68.33       68.33       67.98       66.78       67.84       69.00    
        68.97       68.68       68.86       68.72       68.06       68.32       67.72       66.90       68.00       67.92    
        66.67       65.98       65.73       65.08       62.71       61.25       64.47    
  38    73.38       73.38       70.13       68.28       70.62       72.02       73.04       73.26       71.54       68.30    
        65.84       63.04       69.60       70.92       63.83       60.95       62.66       62.93       61.11       29.86    
        21.20       21.87       21.25       22.14       19.88       18.47       19.94       21.79       21.90       22.25    
        22.35       22.97       23.99       25.01       25.00       25.00       26.02       23.37       22.50       22.59    
        24.49       26.83       29.23       32.84       32.67       34.37       34.27       32.20       29.38       27.92    
        27.74       26.25       25.91       24.98       25.12       25.11       25.72       26.10       26.74       27.48    
        28.32       28.27       28.89       28.77       29.00       28.77       28.99       29.23       29.37       29.83    
        30.77       32.53       32.62       33.21       33.28       34.44       35.19       35.21       35.01       36.72    
        38.37       38.98       37.66       37.61       37.65       37.82       38.83       39.97       40.85       42.36    
        42.50       44.20       44.87       45.97       47.00       48.13       49.90       51.55       52.33       53.11    
        54.52       54.88       56.53       57.50       59.51       63.58       64.54       65.00       65.82       67.50    
        67.76       68.63       69.31       69.59       69.43       69.83       69.09       67.56       68.04       69.45    
        70.00       69.31       68.89       68.78       69.01       69.08       68.93       67.77       67.94       68.81    
        69.26       69.00       69.43       69.19       69.07       68.88       68.10       68.16       68.17       67.85    
        67.23       67.02       65.97       65.12       63.17       61.08       64.08    
  39    73.38       74.27       74.27       67.46       71.98       75.46       73.33       71.11       66.76       62.85    
        54.00       53.23       51.16       47.85       52.15       49.20       47.54       56.42       47.91       30.67    
        25.75       22.50       22.02       20.89       21.50       21.64       21.21       21.97       22.50       22.50    
        23.67       24.45       24.78       25.00       25.00       24.87       26.36       24.73       22.16       22.47    
        24.43       26.41       28.67       30.34       36.17       39.09       39.03       36.45       33.53       30.61    
        29.67       28.31       27.84       26.97       27.12       26.83       27.05       27.18       27.90       29.38    
        31.34       32.59       33.43       31.55       31.18       31.54       29.92       29.95       29.86       30.00    
        30.39       32.21       32.54       33.83       35.12       35.00       35.70       36.16       35.87       36.74    
        37.47       37.57       37.50       37.99       38.95       39.67       40.08       40.01       41.01       42.50    
        42.32       43.99       45.00       45.32       46.50       47.53       48.65       50.31       51.06       52.06    
        53.18       54.49       54.90       56.97       60.15       62.37       65.34       65.38       67.50       67.59    
        68.40       69.34       70.00       70.00       70.00       69.98       69.61       68.71       68.85       69.31    
        70.00       71.02       69.82       68.92       68.93       69.49       69.60       68.68       67.94       69.02    
        69.83       70.17       70.13       69.84       69.59       69.59       68.62       69.09       68.61       68.04    
        67.83       67.60       66.97       65.78       62.82       64.38       65.49    
  40    53.44       53.44       53.44       53.36       75.15       78.71       76.75       75.43       68.42       58.47    
        52.69       47.97       46.97       47.37       44.40       43.15       40.76       37.20       32.46       29.16    
        26.54       24.60       21.99       21.60       22.01       22.50       22.50       22.46       22.50       23.12    
        25.02       25.00       25.00       25.00       25.00       25.00       26.84       22.82       22.50       22.73    
        24.94       28.60       30.17       33.11       36.44       39.59       41.87       38.50       34.58       31.97    
        31.41       29.51       30.34       29.38       29.29       28.21       28.09       27.52       29.11       34.35    
        40.75       39.95       41.69       38.64       39.67       37.81       33.32       30.71       29.95       30.00    
        31.08       32.33       32.48       34.27       35.01       35.72       36.75       37.49       37.47       37.23    
        37.50       37.50       37.50       38.57       39.91       40.29       41.19       42.27       42.50       43.30    
        44.84       45.06       45.00       45.30       46.31       47.21       47.46       49.19       49.96       51.67    
        52.55       55.34       55.66       57.99       57.50       58.61       62.34       65.05       67.52       67.56    
        68.52       69.55       70.00       70.00       70.00       70.00       70.00       69.61       69.69       69.84    
        69.98       70.28       71.47       69.88       69.98       70.28       70.24       68.79       68.77       70.07    
        70.00       70.25       70.25       70.32       70.12       70.08       69.00       69.56       69.24       68.88    
        68.23       68.05       67.45       66.47       62.73       66.31       66.32    
  41    43.57       43.57       43.57       43.87       68.35       69.87       80.27       78.19       71.39       62.54    
        51.37       48.88       45.20       42.92       36.85       37.18       33.06       30.11       28.02       27.23    
        25.57       25.00       21.54       21.68       22.14       22.50       22.50       22.50       22.50       23.12    
        24.60       25.00       25.71       26.75       25.68       26.10       31.64       23.18       22.50       22.42    
        24.44       29.88       36.25       42.87       41.63       47.62       45.90       42.83       42.48       37.42    
        38.39       36.99       37.10       34.60       35.00       32.45       31.58       29.37       30.70       33.84    
        37.64       44.52       49.92       47.99       47.50       44.56       34.89       32.13       30.20       31.24    
        35.27       34.88       33.92       34.83       35.29       36.56       37.18       37.95       37.57       39.93    
[...]
             STORAGE =           0.0000               STORAGE =           0.0000
       CONSTANT HEAD =           0.0000         CONSTANT HEAD =           0.0000
              DRAINS =      538374.8750                DRAINS =      538374.8750
            RECHARGE =           0.0000              RECHARGE =           0.0000

           TOTAL OUT =      538374.8750             TOTAL OUT =      538374.8750

            IN - OUT =           0.1250              IN - OUT =           0.1250

 PERCENT DISCREPANCY =           0.00     PERCENT DISCREPANCY =           0.00






         TIME SUMMARY AT END OF TIME STEP    1 IN STRESS PERIOD    1
                    SECONDS     MINUTES      HOURS       DAYS        YEARS
                    -----------------------------------------------------------
   TIME STEP LENGTH  86400.      1440.0      24.000      1.0000     2.73785E-03
 STRESS PERIOD TIME  86400.      1440.0      24.000      1.0000     2.73785E-03
         TOTAL TIME  86400.      1440.0      24.000      1.0000     2.73785E-03
1

 HEAD AND DRAWDOWN OBSERVATIONS
 OBSERVATION       OBSERVED           SIMULATED
   NAME              VALUE              VALUE             DIFFERENCE
 --------------------------------------------------------------------
 000001          19.879999161        20.801433563      -0.92143440247    
 000002          19.530000687        19.051721573       0.47827911377    
 000003          18.889999390        18.656324387       0.23367500305    
 000004          18.520000458        18.937471390      -0.41747093201    
 000005          18.670000076        19.157968521      -0.48796844482    
 000006          19.750000000        19.630237579       0.11976242065    
 000007          19.500000000        19.522989273      -2.29892730713E-02
 000008          19.120000839        19.181781769      -6.17809295654E-02
 000009          69.849998474        59.000663757        10.849334717    
 000010          20.040000916        19.635446548       0.40455436707    
 000011          19.989999771        19.635446548       0.35455322266    
 000012          31.479999542        32.990539551       -1.5105400085    
 000013          31.479999542        32.990539551       -1.5105400085    
 000016          70.370002747        61.213546753        9.1564559937    
 000017          68.879997253        61.119636536        7.7603607178    
 000018          68.540000916        61.119636536        7.4203643799    
 000019          65.069999695        58.978275299        6.0917243958    
 000020          63.290000916        58.978275299        4.3117256165    
 000021          65.059997559        59.049674988        6.0103225708    
 000022          32.529998779        34.312492371       -1.7824935913    
 000023          32.529998779        34.312492371       -1.7824935913    
 000024          32.540000916        34.312492371       -1.7724914551    
 000025          41.319999695        42.981857300       -1.6618576050    
 000026          41.299999237        42.981857300       -1.6818580627    
 000027          41.299999237        42.981857300       -1.6818580627    
 000028          28.629999161        29.294231415      -0.66423225403    
 000029          28.620000839        29.294231415      -0.67423057556    
 000030          28.610000610        29.294231415      -0.68423080444    
 000031          27.049999237        27.668998718      -0.61899948120    
 000032          27.040000916        27.668998718      -0.62899780273    
 000033          20.559999466        22.032836914       -1.4728374481    
 000035          20.879999161        22.033645630       -1.1536464691    
 000036          23.069999695        24.614213943       -1.5442142487    
 000037          23.079999924        24.614213943       -1.5342140198    
 000038          23.049999237        24.614213943       -1.5642147064    
 000039          23.649999619        24.392847061      -0.74284744263    
 000040          23.649999619        24.392847061      -0.74284744263    
 000041          23.649999619        24.392847061      -0.74284744263    
 000042          20.909999847        21.231655121      -0.32165527344    
 000043          20.780000687        21.225526810      -0.44552612305    
 000044          20.780000687        21.225526810      -0.44552612305    
 000045          25.459999084        24.715932846       0.74406623840    
 000046          25.260000229        24.715932846       0.54406738281    
 000047          25.209999084        24.715932846       0.49406623840    
 000048          25.090000153        25.516820908      -0.42682075500    
 000049          25.090000153        25.516820908      -0.42682075500    
 000050          25.100000381        25.516820908      -0.41682052612    
 000051          25.360000610        26.171867371      -0.81186676025    
 000052          25.350000381        26.171867371      -0.82186698914    
 000053          25.430000305        26.171867371      -0.74186706543    
 000054          27.030000687        27.813575745      -0.78357505798    
 000055          27.030000687        27.813575745      -0.78357505798    
 000056          42.669998169        44.985145569       -2.3151473999    
 000057          42.259998322        44.848876953       -2.5888786316    
 000058          42.259998322        44.819942474       -2.5599441528    
 000060          30.479999542        31.829105377       -1.3491058350    
 000062          50.810001373        50.066566467       0.74343490601    
 000063          50.340000153        50.066566467       0.27343368530    
 000064          50.319999695        50.066566467       0.25343322754    
 000065          19.870000839        19.330768585       0.53923225403    
 000066          19.879999161        19.574312210       0.30568695068    
 000067          20.090000153        21.128776550       -1.0387763977    
 000068          19.879999161        20.473571777      -0.59357261658    
 000069          19.670000076        19.590669632       7.93304443359E-02
 000070          52.680000305        50.948089600        1.7319107056    
 000071          52.209999084        50.940895081        1.2691040039    
 000072          51.729999542        50.930019379       0.79998016357    
 000073          51.970001221        50.924995422        1.0450057983    
 000074          46.169998169        47.732860565       -1.5628623962    
 000075          45.639999390        47.671592712       -2.0315933228    
 000076          32.540000916        36.379386902       -3.8393859863    
 000077          32.849998474        36.384029388       -3.5340309143    
 000078          32.799999237        36.405193329       -3.6051940918    
 000079          32.779998779        36.417461395       -3.6374626160    
 000080          51.799999237        51.671852112       0.12814712524    
 000081          44.900001526        47.314144135       -2.4141426086    
 000082          45.159999847        47.307579041       -2.1475791931    
 000083          45.709999084        46.743869781       -1.0338706970    
 000084          45.900001526        47.296684265       -1.3966827393    
 000085          46.439998627        47.289478302      -0.84947967529    
 000086          46.759998322        47.282474518      -0.52247619629    
 000087          47.020000458        47.282611847      -0.26261138916    
 000088          51.580001831        51.853107452      -0.27310562134    
 000090          54.490001678        52.671749115        1.8182525635    
 000091          41.590000153        44.809314728       -3.2193145752    
 000092          41.590000153        44.813396454       -3.2233963013    
 000093          45.869998932        46.925827026       -1.0558280945    
 000094          46.790000916        47.614330292      -0.82432937622    
 000095          45.919998169        47.518009186       -1.5980110168    
 000096          47.630001068        47.808879852      -0.17887878418    
 000097          47.069999695        47.365623474      -0.29562377930    
 000098          51.639999390        50.632709503        1.0072898865    
 000099          51.099998474        50.625671387       0.47432708740    
 000100          50.180000305        50.765846252      -0.58584594727    
 000101          50.000000000        50.684635162      -0.68463516235    
 000102          50.229999542        50.574901581      -0.34490203857    
 000103          50.380001068        50.728046417      -0.34804534912    
 000104          49.959999084        50.587566376      -0.62756729126    
 000107          56.040000916        54.093841553        1.9461593628    
 000108          55.060001373        54.240528107       0.81947326660    
 000109          55.090000153        54.015884399        1.0741157532    
 000110          54.889999390        54.054336548       0.83566284180    
 000111          54.729999542        54.022823334       0.70717620850    
 000112          54.069999695        53.896411896       0.17358779907    
 000113          55.400001526        53.855533600        1.5444679260    
 000114          55.069999695        53.888370514        1.1816291809    
 000115          54.830001831        54.063480377       0.76652145386    
 000116          54.299999237        54.023941040       0.27605819702    
 000117          54.369998932        53.984340668       0.38565826416    
 000118          53.880001068        53.883724213      -3.72314453125E-03
 000119          53.689998627        53.434288025       0.25571060181    
 000120          53.490001678        53.499416351      -9.41467285156E-03
 000121          53.680000305        53.520072937       0.15992736816    
 000122          53.990001678        53.613170624       0.37683105469    
 000123          54.279998779        53.891826630       0.38817214966    
 000124          54.139999390        53.896411896       0.24358749390    
 000125          54.860000610        54.054874420       0.80512619019    
 000126          54.259998322        53.829299927       0.43069839478    
 000127          54.889999390        53.774848938        1.1151504517    
 000128          54.319999695        53.427055359       0.89294433594    
 000129          53.770000458        53.426742554       0.34325790405    
 000130          53.599998474        52.859115601       0.74088287354    
 000131          53.709999084        52.739894867       0.97010421753    
 000132          53.849998474        53.160217285       0.68978118896    
 000133          53.549999237        53.425857544       0.12414169312    
 000134          52.970001221        52.651241302       0.31875991821    
 000135          53.250000000        52.462875366       0.78712463379    
 000136          53.250000000        52.407100677       0.84289932251    
 000137          53.029998779        52.666007996       0.36399078369    
 000138          53.330001831        52.910427094       0.41957473755    
 000139          51.759998322        51.668193817       9.18045043945E-02
 000140          51.830001831        51.624366760       0.20563507080    
 000141          57.040000916        52.757274628        4.2827262878    
 000142          53.810001373        52.611469269        1.1985321045    
 000143          52.169998169        52.399532318      -0.22953414917    
 000144          53.069999695        52.211231232       0.85876846313    
 000145          52.389999390        52.094715118       0.29528427124    
 000146          52.080001831        51.732761383       0.34724044800    
 000147          53.400001526        53.444019318      -4.40177917480E-02
 000148          54.409999847        53.228164673        1.1818351746    
 000149          53.729999542        53.185489655       0.54450988770    
 000150          52.729999542        52.662876129       6.71234130859E-02
 000151          51.840000153        52.160938263      -0.32093811035    
 000152          51.849998474        51.670856476       0.17914199829    
 000153          53.709999084        52.315639496        1.3943595886    
 000154          53.270000458        52.348579407       0.92142105103    
 000155          52.000000000        52.070045471      -7.00454711914E-02
 000156          52.119998932        52.057952881       6.20460510254E-02
 000157          52.209999084        52.021595001       0.18840408325    
 000158          52.090000153        52.019550323       7.04498291016E-02
 000159          51.849998474        51.872306824      -2.23083496094E-02
 000160          51.889999390        51.865024567       2.49748229980E-02
 000161          51.889999390        51.858901978       3.10974121094E-02
 000162          51.869998932        51.868236542       1.76239013672E-03
 000163          52.909999847        52.276813507       0.63318634033    
 000164          52.509998322        52.222183228       0.28781509399    
 000165          52.479999542        52.244457245       0.23554229736    
 000166          52.450000763        52.242694855       0.20730590820    
 000167          52.380001068        52.234420776       0.14558029175    
 000168          52.540000916        52.337570190       0.20243072510    
 000169          52.500000000        52.302845001       0.19715499878    
 000170          53.119998932        52.478828430       0.64117050171    
 000171          52.729999542        52.383125305       0.34687423706    
 000172          56.409999847        54.094375610        2.3156242371    
 000173          53.549999237        52.421699524        1.1282997131    
 000174          53.549999237        52.416770935        1.1332283020    
 000175          52.430000305        52.304752350       0.12524795532    
 000176          52.459999084        52.272876740       0.18712234497    
 000177          56.479999542        52.937076569        3.5429229736    
 000178          62.610000610        51.998142242        10.611858368    
 000179          61.930000305        51.998142242        9.9318580627    
 000180          61.860000610        51.857875824        10.002124786    
 000181          60.560001373        51.487064362        9.0729370117    
 000182          59.880001068        51.268180847        8.6118202209    
 000183          58.979999542        50.997482300        7.9825172424    
 000184          58.849998474        50.270698547        8.5792999268    
 000185          57.590000153        50.265602112        7.3243980408    
 000186          56.459999084        50.047866821        6.4121322632    
 000187          62.979999542        50.068279266        12.911720276    
 000188          63.450000763        49.884712219        13.565288544    
 000189          50.220001221        49.537517548       0.68248367310    
 000190          62.000000000        51.611576080        10.388423920    
 000191          55.409999847        52.910858154        2.4991416931    
 000192          42.369998932        44.815551758       -2.4455528259    
 000193          62.729999542        54.862377167        7.8676223755    
 000194          67.519996643        57.967773438        9.5522232056    
 000195          67.470001221        58.085826874        9.3841743469    
 000196          59.220001221        56.898181915        2.3218193054    
 000197          59.610000610        56.944259644        2.6657409668    
 000198          58.419998169        56.778663635        1.6413345337    
 000199          59.840000153        56.383384705        3.4566154480    
 000200          58.330001831        56.421974182        1.9080276489    
 000201          59.209999084        54.965023041        4.2449760437    
 000202          59.459999084        54.934734344        4.5252647400    
 000203          60.909999847        54.962356567        5.9476432800    
 000204          56.520000458        55.367763519        1.1522369385    
 000205          60.009998322        55.235637665        4.7743606567    
 000206          56.080001831        55.172992706       0.90700912476    
 000207          57.909999847        56.129154205        1.7808456421    
 000208          57.419998169        56.076862335        1.3431358337    
 000209          59.639999390        56.338726044        3.3012733459    
 000210          59.939998627        57.237239838        2.7027587891    
 000211          59.630001068        57.280048370        2.3499526978    
 000212          59.310001373        56.001876831        3.3081245422    
 000213          61.419998169        56.047988892        5.3720092773    
 000214          61.880001068        55.999946594        5.8800544739    
 000215          63.169998169        53.151790619        10.018207550    
 000216          68.870002747        58.303310394        10.566692352    
 000217          68.500000000        58.247150421        10.252849579    
 000218          66.139999390        58.303718567        7.8362808228    
 000219          57.500000000        53.612438202        3.8875617981    
 000220          62.770000458        55.911418915        6.8585815430    
 000221          61.470001221        55.327205658        6.1427955627    
 000223          50.930000305        50.652801514       0.27719879150    
 000224          67.449996948        59.802955627        7.6470413208    
 000225          66.199996948        59.693801880        6.5061950684    
 000228          60.830001831        56.022834778        4.8071670532    
 000229          23.030000687        24.258438110       -1.2284374237    
 000230          22.840000153        24.260208130       -1.4202079773    
 000231          23.059999466        24.261217117       -1.2012176514    
 000232          22.790000916        24.261856079       -1.4718551636    
 000233          23.059999466        24.263246536       -1.2032470703    
 000234          23.420000076        24.166198730      -0.74619865417    
 000235          23.590000153        24.165269852      -0.57526969910    
 000236          24.600000381        25.943412781       -1.3434123993    
 000237          24.739999771        25.949996948       -1.2099971771    
 000238          24.379999161        25.953134537       -1.5731353760    
 000239          23.930000305        24.294746399      -0.36474609375    
 000240          24.149999619        24.189920425      -3.99208068848E-02
 000241          24.840000153        24.191703796       0.64829635620    
 000242          24.469999313        24.253160477       0.21683883667    
 000243          24.479999542        24.203905106       0.27609443665    
 000244          24.540000916        24.295396805       0.24460411072    
 000245          67.300003052        60.438922882        6.8610801697    
 000246          69.639999390        60.782962799        8.8570365906    
 000247          19.090000153        19.660844803      -0.57084465027    
 000248          55.090000153        54.082950592        1.0070495605    
 000249          61.020000458        55.918704987        5.1012954712    
 000250          39.659999847        42.255722046       -2.5957221985    
 000251          41.409999847        41.414894104      -4.89425659180E-03
 000252          62.830001831        57.071411133        5.7585906982    
 000253          62.450000763        56.794746399        5.6552543640    
 000254          61.889999390        56.270217896        5.6197814941    
 000255          19.889999390        20.357608795      -0.46760940552    
 000256          20.200000763        20.357608795      -0.15760803223    
 000257          54.639999390        54.002834320       0.63716506958    
 000258          52.740001678        52.336658478       0.40334320068    
 000259          59.979999542        56.107753754        3.8722457886    
 000260          59.119998932        56.116725922        3.0032730103    
 000261          68.069999695        60.145824432        7.9241752625    
 000262          68.269996643        59.066448212        9.2035484314    

 HEAD/DRAWDOWN SUM OF SQUARED DIFFERENCE:    3.34584E+03

 Run end date and time (yyyy/mm/dd hh:mm:ss): 2020/10/10 12:18:04
 Elapsed run time:  0.778 Seconds

