MODPATH_ENDPOINT_FILE 6 0                                                       
 1        234        234        234   0.100000000000000E+01
         0          0        234          0          0          0
         1
Object7         
END HEADER
          1     1  2   0.000000000000000E+00   0.175877541865289E+05  1    1   48   25 6          1   0.1666667E+00   0.8333333E+00   0.1000000E+01   0.241666666666667E+04   0.528333333333333E+04   0.101364841461182E+02  1    1   63   26 2          1   0.1000000E+01   0.5655489E+00   0.1011038E+00   0.260000000000000E+04   0.375655489292909E+04  -0.175241474375547E+02 0
          2     1  2   0.000000000000000E+00   0.163363076129540E+05  1    1   48   25 6          1   0.1666667E+00   0.5000000E+00   0.1000000E+01   0.241666666666667E+04   0.525000000000000E+04   0.101364841461182E+02  1    1   63   26 4          1   0.3958639E+00   0.1000000E+01   0.1277367E+00   0.253958639394755E+04   0.380000000000000E+04  -0.168719541378596E+02 0
          3     1  2   0.000000000000000E+00   0.155099972156878E+05  1    1   48   25 6          1   0.1666667E+00   0.1666667E+00   0.1000000E+01   0.241666666666667E+04   0.521666666666667E+04   0.101364841461182E+02  1    1   63   26 4          1   0.2421496E+00   0.1000000E+01   0.1568008E+00   0.252421495642550E+04   0.380000000000000E+04  -0.161602264496602E+02 0
          4     1  2   0.000000000000000E+00   0.241460406342443E+05  1    1   48   25 6          1   0.5000000E+00   0.8333333E+00   0.1000000E+01   0.245000000000000E+04   0.528333333333333E+04   0.101364841461182E+02  1    1   64   27 3          1   0.4610985E+00   0.0000000E+00   0.2709544E+00   0.264610984651981E+04   0.360000000000000E+04  -0.133875334879345E+02 0
          5     1  2   0.000000000000000E+00   0.178958503910854E+05  1    1   48   25 6          1   0.5000000E+00   0.5000000E+00   0.1000000E+01   0.245000000000000E+04   0.525000000000000E+04   0.101364841461182E+02  1    1   64   27 4          1   0.3343290E+00   0.1000000E+01   0.1354319E+00   0.263343289625998E+04   0.370000000000000E+04  -0.166948719932644E+02 0
          6     1  2   0.000000000000000E+00   0.162761120657608E+05  1    1   48   25 6          1   0.5000000E+00   0.1666667E+00   0.1000000E+01   0.245000000000000E+04   0.521666666666667E+04   0.101364841461182E+02  1    1   63   26 2          1   0.1000000E+01   0.2330575E+00   0.1431255E+00   0.260000000000000E+04   0.372330575064174E+04  -0.164951108558625E+02 0
          7     1  2   0.000000000000000E+00   0.240594572718416E+05  1    1   48   25 6          1   0.8333333E+00   0.8333333E+00   0.1000000E+01   0.248333333333333E+04   0.528333333333333E+04   0.101364841461182E+02  1    1   60   35 3          1   0.3422948E+00   0.0000000E+00   0.2151780E+00   0.343422947995189E+04   0.400000000000000E+04  -0.144044612672431E+02 0
          8     1  2   0.000000000000000E+00   0.242856083368946E+05  1    1   48   25 6          1   0.8333333E+00   0.5000000E+00   0.1000000E+01   0.248333333333333E+04   0.525000000000000E+04   0.101364841461182E+02  1    1   66   28 2          1   0.1000000E+01   0.5805773E+00   0.2477909E+00   0.280000000000000E+04   0.345805773068278E+04  -0.139272569320180E+02 0
          9     1  2   0.000000000000000E+00   0.238144187910321E+05  1    1   48   25 6          1   0.8333333E+00   0.1666667E+00   0.1000000E+01   0.248333333333333E+04   0.521666666666667E+04   0.101364841461182E+02  1    1   64   27 3          1   0.4500639E+00   0.0000000E+00   0.2998956E+00   0.264500639469074E+04   0.360000000000000E+04  -0.126812423804120E+02 0
         10     1  2   0.000000000000000E+00   0.146027009251521E+05  1    1   49   25 6          1   0.1666667E+00   0.8333333E+00   0.1000000E+01   0.241666666666667E+04   0.518333333333333E+04   0.100303411483765E+02  1    1   63   26 4          1   0.1793954E+00   0.1000000E+01   0.1787121E+00   0.251793953899109E+04   0.380000000000000E+04  -0.156236563035466E+02 0
         11     1  2   0.000000000000000E+00   0.136276834820735E+05  1    1   49   25 6          1   0.1666667E+00   0.5000000E+00   0.1000000E+01   0.241666666666667E+04   0.515000000000000E+04   0.100303411483765E+02  1    1   63   26 4          1   0.1231963E+00   0.1000000E+01   0.2019599E+00   0.251231963292424E+04   0.380000000000000E+04  -0.150543591954641E+02 0
         12     1  2   0.000000000000000E+00   0.126841900097637E+05  1    1   49   25 6          1   0.1666667E+00   0.1666667E+00   0.1000000E+01   0.241666666666667E+04   0.511666666666667E+04   0.100303411483765E+02  1    1   63   26 4          1   0.7135564E-01   0.1000000E+01   0.2275764E+00   0.250713556399694E+04   0.380000000000000E+04  -0.144270574599025E+02 0
         13     1  2   0.000000000000000E+00   0.145538576985978E+05  1    1   49   25 6          1   0.5000000E+00   0.8333333E+00   0.1000000E+01   0.245000000000000E+04   0.518333333333333E+04   0.100303411483765E+02  1    1   63   26 4          1   0.6515545E+00   0.1000000E+01   0.1496781E+00   0.256515544591121E+04   0.380000000000000E+04  -0.163346487013352E+02 0
         14     1  2   0.000000000000000E+00   0.140103347000001E+05  1    1   49   25 6          1   0.5000000E+00   0.5000000E+00   0.1000000E+01   0.245000000000000E+04   0.515000000000000E+04   0.100303411483765E+02  1    1   63   26 4          1   0.2953519E+00   0.1000000E+01   0.1893391E+00   0.252953519101573E+04   0.380000000000000E+04  -0.153634200772456E+02 0
         15     1  2   0.000000000000000E+00   0.133025463876669E+05  1    1   49   25 6          1   0.5000000E+00   0.1666667E+00   0.1000000E+01   0.245000000000000E+04   0.511666666666667E+04   0.100303411483765E+02  1    1   63   26 4          1   0.2130982E+00   0.1000000E+01   0.2168227E+00   0.252130981746159E+04   0.380000000000000E+04  -0.146903952910881E+02 0
         16     1  2   0.000000000000000E+00   0.164010222447843E+05  1    1   49   25 6          1   0.8333333E+00   0.8333333E+00   0.1000000E+01   0.248333333333333E+04   0.518333333333333E+04   0.100303411483765E+02  1    1   64   27 4          1   0.5844133E+00   0.1000000E+01   0.1553899E+00   0.265844132929234E+04   0.370000000000000E+04  -0.162078090900492E+02 0
         17     1  2   0.000000000000000E+00   0.150716351710001E+05  1    1   49   25 6          1   0.8333333E+00   0.5000000E+00   0.1000000E+01   0.248333333333333E+04   0.515000000000000E+04   0.100303411483765E+02  1    1   63   26 2          1   0.1000000E+01   0.6360679E-01   0.1781732E+00   0.260000000000000E+04   0.370636067902438E+04  -0.156368551349245E+02 0
         18     1  2   0.000000000000000E+00   0.131142111580421E+05  1    1   49   25 6          1   0.8333333E+00   0.1666667E+00   0.1000000E+01   0.248333333333333E+04   0.511666666666667E+04   0.100303411483765E+02  1    1   63   26 2          1   0.1000000E+01   0.8547500E+00   0.1806479E+00   0.260000000000000E+04   0.378547499526096E+04  -0.155762532509080E+02 0
         19     1  2   0.000000000000000E+00   0.995887989990964E+05  1    1   47   26 6          1   0.1666667E+00   0.8333333E+00   0.1000000E+01   0.251666666666667E+04   0.538333333333333E+04   0.101762886047363E+02  1    1   60   35 4          1   0.5323380E+00   0.1000000E+01   0.9034995E-01   0.345323379818535E+04   0.410000000000000E+04  -0.176505192107811E+02 0
         20     1  2   0.000000000000000E+00   0.186262836317887E+05  1    1   47   26 6          1   0.1666667E+00   0.5000000E+00   0.1000000E+01   0.251666666666667E+04   0.535000000000000E+04   0.101762886047363E+02  1    1   60   35 4          1   0.5917832E+00   0.1000000E+01   0.1248989E+00   0.345917831845057E+04   0.410000000000000E+04  -0.167521017382198E+02 0
         21     1  2   0.000000000000000E+00   0.176194078096248E+05  1    1   47   26 6          1   0.1666667E+00   0.1666667E+00   0.1000000E+01   0.251666666666667E+04   0.531666666666667E+04   0.101762886047363E+02  1    1   60   35 4          1   0.5694953E+00   0.1000000E+01   0.1149508E+00   0.345694952519579E+04   0.410000000000000E+04  -0.170107934476439E+02 0
         22     1  2   0.000000000000000E+00   0.184677312370857E+05  1    1   47   26 6          1   0.5000000E+00   0.8333333E+00   0.1000000E+01   0.255000000000000E+04   0.538333333333333E+04   0.101762886047363E+02  1    1   57   36 3          1   0.2451405E+00   0.0000000E+00   0.1296080E+00   0.352451405350536E+04   0.430000000000000E+04  -0.166158198813734E+02 0
         23     1  2   0.000000000000000E+00   0.182433268616333E+05  1    1   47   26 6          1   0.5000000E+00   0.5000000E+00   0.1000000E+01   0.255000000000000E+04   0.535000000000000E+04   0.101762886047363E+02  1    1   60   35 4          1   0.5949967E+00   0.1000000E+01   0.1469875E+00   0.345949967273113E+04   0.410000000000000E+04  -0.161777024053452E+02 0
         24     1  2   0.000000000000000E+00   0.174297707485713E+05  1    1   47   26 6          1   0.5000000E+00   0.1666667E+00   0.1000000E+01   0.255000000000000E+04   0.531666666666667E+04   0.101762886047363E+02  1    1   60   35 4          1   0.5937572E+00   0.1000000E+01   0.1461959E+00   0.345937571540248E+04   0.410000000000000E+04  -0.161982879487961E+02 0
         25     1  2   0.000000000000000E+00   0.153713703505867E+05  1    1   47   26 6          1   0.8333333E+00   0.8333333E+00   0.1000000E+01   0.258333333333333E+04   0.538333333333333E+04   0.101762886047363E+02  1    1   57   36 1          1   0.0000000E+00   0.4603978E+00   0.6772993E-01   0.350000000000000E+04   0.434603977825075E+04  -0.182315110372487E+02 0
         26     1  2   0.000000000000000E+00   0.158425851726420E+05  1    1   47   26 6          1   0.8333333E+00   0.5000000E+00   0.1000000E+01   0.258333333333333E+04   0.535000000000000E+04   0.101762886047363E+02  1    1   57   36 3          1   0.1896432E+00   0.0000000E+00   0.1093276E+00   0.351896432391161E+04   0.430000000000000E+04  -0.171453580876578E+02 0
         27     1  2   0.000000000000000E+00   0.171881524345680E+05  1    1   47   26 6          1   0.8333333E+00   0.1666667E+00   0.1000000E+01   0.258333333333333E+04   0.531666666666667E+04   0.101762886047363E+02  1    1   57   36 3          1   0.2511615E+00   0.0000000E+00   0.1637619E+00   0.352511614696548E+04   0.430000000000000E+04  -0.157240319645175E+02 0
         28     1  2   0.000000000000000E+00   0.165469360494620E+05  1    1   48   26 6          1   0.1666667E+00   0.8333333E+00   0.1000000E+01   0.251666666666667E+04   0.528333333333333E+04   0.100882329940796E+02  1    1   60   35 1          1   0.0000000E+00   0.8255554E+00   0.9590508E-01   0.340000000000000E+04   0.408255553974975E+04  -0.175060625597315E+02 0
         29     1  2   0.000000000000000E+00   0.167504395034141E+05  1    1   48   26 6          1   0.1666667E+00   0.5000000E+00   0.1000000E+01   0.251666666666667E+04   0.525000000000000E+04   0.100882329940796E+02  1    1   60   35 1          1   0.0000000E+00   0.1664488E+00   0.1139145E+00   0.340000000000000E+04   0.401664487657601E+04  -0.170377402097016E+02 0
         30     1  2   0.000000000000000E+00   0.224572397139535E+05  1    1   48   26 6          1   0.1666667E+00   0.1666667E+00   0.1000000E+01   0.251666666666667E+04   0.521666666666667E+04   0.100882329940796E+02  1    1   60   35 3          1   0.3422948E+00   0.0000000E+00   0.2232696E+00   0.343422948022181E+04   0.400000000000000E+04  -0.141940456711596E+02 0
         31     1  2   0.000000000000000E+00   0.166725570031203E+05  1    1   48   26 6          1   0.5000000E+00   0.8333333E+00   0.1000000E+01   0.255000000000000E+04   0.528333333333333E+04   0.100882329940796E+02  1    1   60   35 4          1   0.5906109E+00   0.1000000E+01   0.1441535E+00   0.345906109012150E+04   0.410000000000000E+04  -0.162514006738115E+02 0
         32     1  2   0.000000000000000E+00   0.157544754786584E+05  1    1   48   26 6          1   0.5000000E+00   0.5000000E+00   0.1000000E+01   0.255000000000000E+04   0.525000000000000E+04   0.100882329940796E+02  1    1   60   35 4          1   0.5444702E+00   0.1000000E+01   0.1335837E+00   0.345444701764324E+04   0.410000000000000E+04  -0.165262579158432E+02 0
         33     1  2   0.000000000000000E+00   0.150275020062788E+05  1    1   48   26 6          1   0.5000000E+00   0.1666667E+00   0.1000000E+01   0.255000000000000E+04   0.521666666666667E+04   0.100882329940796E+02  1    1   60   35 1          1   0.0000000E+00   0.7413854E+00   0.1250146E+00   0.340000000000000E+04   0.407413853664136E+04  -0.167490914573638E+02 0
         34     1  2   0.000000000000000E+00   0.163542022621194E+05  1    1   48   26 6          1   0.8333333E+00   0.8333333E+00   0.1000000E+01   0.258333333333333E+04   0.528333333333333E+04   0.100882329940796E+02  1    1   60   35 4          1   0.5945767E+00   0.1000000E+01   0.1648159E+00   0.345945766603336E+04   0.410000000000000E+04  -0.157140891868979E+02 0
         35     1  2   0.000000000000000E+00   0.157032734253501E+05  1    1   48   26 6          1   0.8333333E+00   0.5000000E+00   0.1000000E+01   0.258333333333333E+04   0.525000000000000E+04   0.100882329940796E+02  1    1   60   35 4          1   0.5930116E+00   0.1000000E+01   0.1653202E+00   0.345930116399306E+04   0.410000000000000E+04  -0.157009755682581E+02 0
         36     1  2   0.000000000000000E+00   0.150383457527750E+05  1    1   48   26 6          1   0.8333333E+00   0.1666667E+00   0.1000000E+01   0.258333333333333E+04   0.521666666666667E+04   0.100882329940796E+02  1    1   60   35 4          1   0.5873579E+00   0.1000000E+01   0.1645636E+00   0.345873578606911E+04   0.410000000000000E+04  -0.157206499199105E+02 0
         37     1  2   0.000000000000000E+00   0.240153632549167E+05  1    1   49   26 6          1   0.1666667E+00   0.8333333E+00   0.1000000E+01   0.251666666666667E+04   0.518333333333333E+04   0.997496891021729E+01  1    1   66   28 2          1   0.1000000E+01   0.5804067E+00   0.2633673E+00   0.280000000000000E+04   0.345804067295883E+04  -0.135455172634304E+02 0
         38     1  2   0.000000000000000E+00   0.231318990261653E+05  1    1   49   26 6          1   0.1666667E+00   0.5000000E+00   0.1000000E+01   0.251666666666667E+04   0.515000000000000E+04   0.997496891021729E+01  1    1   64   27 3          1   0.4480258E+00   0.0000000E+00   0.3120167E+00   0.264480257741402E+04   0.360000000000000E+04  -0.123854336698447E+02 0
         39     1  2   0.000000000000000E+00   0.151572294420659E+05  1    1   49   26 6          1   0.1666667E+00   0.1666667E+00   0.1000000E+01   0.251666666666667E+04   0.511666666666667E+04   0.997496891021729E+01  1    1   64   27 4          1   0.9263758E+00   0.1000000E+01   0.1741495E+00   0.269263758263270E+04   0.370000000000000E+04  -0.157499929467091E+02 0
         40     1  2   0.000000000000000E+00   0.152572415320387E+05  1    1   49   26 6          1   0.5000000E+00   0.8333333E+00   0.1000000E+01   0.255000000000000E+04   0.518333333333333E+04   0.997496891021729E+01  1    1   60   35 1          1   0.0000000E+00   0.1421305E+00   0.1394665E+00   0.340000000000000E+04   0.401421305410994E+04  -0.163732825471178E+02 0
         41     1  2   0.000000000000000E+00   0.210568936921705E+05  1    1   49   26 6          1   0.5000000E+00   0.5000000E+00   0.1000000E+01   0.255000000000000E+04   0.515000000000000E+04   0.997496891021729E+01  1    1   60   35 3          1   0.3422948E+00   0.0000000E+00   0.2306439E+00   0.343422948024923E+04   0.400000000000000E+04  -0.140022839767160E+02 0
         42     1  2   0.000000000000000E+00   0.235114340211333E+05  1    1   49   26 6          1   0.5000000E+00   0.1666667E+00   0.1000000E+01   0.255000000000000E+04   0.511666666666667E+04   0.997496891021729E+01  1    1   66   28 2          1   0.1000000E+01   0.5803843E+00   0.2722417E+00   0.280000000000000E+04   0.345803843189332E+04  -0.133280273432686E+02 0
         43     1  2   0.000000000000000E+00   0.141297190617416E+05  1    1   49   26 6          1   0.8333333E+00   0.8333333E+00   0.1000000E+01   0.258333333333333E+04   0.518333333333333E+04   0.997496891021729E+01  1    1   60   35 4          1   0.4823997E+00   0.1000000E+01   0.1553833E+00   0.344823996918521E+04   0.410000000000000E+04  -0.159593761267462E+02 0
         44     1  2   0.000000000000000E+00   0.137709348764154E+05  1    1   49   26 6          1   0.8333333E+00   0.5000000E+00   0.1000000E+01   0.258333333333333E+04   0.515000000000000E+04   0.997496891021729E+01  1    1   60   35 1          1   0.0000000E+00   0.6433795E+00   0.1557410E+00   0.340000000000000E+04   0.406433795116595E+04  -0.159500743100884E+02 0
         45     1  2   0.000000000000000E+00   0.140231811444879E+05  1    1   49   26 6          1   0.8333333E+00   0.1666667E+00   0.1000000E+01   0.258333333333333E+04   0.511666666666667E+04   0.997496891021729E+01  1    1   60   35 1          1   0.0000000E+00   0.8816552E-01   0.1669105E+00   0.340000000000000E+04   0.400881655245991E+04  -0.156596208265090E+02 0
         46     1  2   0.000000000000000E+00   0.140326343375882E+05  1    1   50   26 6          1   0.1666667E+00   0.8333333E+00   0.1000000E+01   0.251666666666667E+04   0.508333333333333E+04   0.983486843109131E+01  1    1   64   27 4          1   0.7882296E-01   0.1000000E+01   0.2072553E+00   0.260788229578432E+04   0.370000000000000E+04  -0.149420685991622E+02 0
         47     1  2   0.000000000000000E+00   0.126012749484392E+05  1    1   50   26 6          1   0.1666667E+00   0.5000000E+00   0.1000000E+01   0.251666666666667E+04   0.505000000000000E+04   0.983486843109131E+01  1    1   63   26 2          1   0.1000000E+01   0.4578316E+00   0.2187541E+00   0.260000000000000E+04   0.374578316027117E+04  -0.146430990475297E+02 0
         48     1  2   0.000000000000000E+00   0.115010035946897E+05  1    1   50   26 6          1   0.1666667E+00   0.1666667E+00   0.1000000E+01   0.251666666666667E+04   0.501666666666667E+04   0.983486843109131E+01  1    1   63   26 4          1   0.5620209E+00   0.1000000E+01   0.2447080E+00   0.255620208559995E+04   0.380000000000000E+04  -0.140075358678912E+02 0
         49     1  2   0.000000000000000E+00   0.170181017356596E+05  1    1   50   26 6          1   0.5000000E+00   0.8333333E+00   0.1000000E+01   0.255000000000000E+04   0.508333333333333E+04   0.983486843109131E+01  1    1   66   28 4          1   0.3479087E+00   0.1000000E+01   0.2215160E+00   0.273479087422134E+04   0.350000000000000E+04  -0.145711895370046E+02 0
         50     1  2   0.000000000000000E+00   0.146348345578224E+05  1    1   50   26 6          1   0.5000000E+00   0.5000000E+00   0.1000000E+01   0.255000000000000E+04   0.505000000000000E+04   0.983486843109131E+01  1    1   64   27 2          1   0.1000000E+01   0.7201114E+00   0.2027940E+00   0.270000000000000E+04   0.367201113626217E+04  -0.150509440960692E+02 0
         51     1  2   0.000000000000000E+00   0.131192519546526E+05  1    1   50   26 6          1   0.5000000E+00   0.1666667E+00   0.1000000E+01   0.255000000000000E+04   0.501666666666667E+04   0.983486843109131E+01  1    1   64   27 4          1   0.2387428E+00   0.1000000E+01   0.2331581E+00   0.262387427744130E+04   0.370000000000000E+04  -0.143099285911487E+02 0
         52     1  2   0.000000000000000E+00   0.197365170633463E+05  1    1   50   26 6          1   0.8333333E+00   0.8333333E+00   0.1000000E+01   0.258333333333333E+04   0.508333333333333E+04   0.983486843109131E+01  1    1   60   35 3          1   0.3422948E+00   0.0000000E+00   0.2381270E+00   0.343422948009534E+04   0.400000000000000E+04  -0.138076907747012E+02 0
         53     1  2   0.000000000000000E+00   0.164690155309856E+05  1    1   50   26 6          1   0.8333333E+00   0.5000000E+00   0.1000000E+01   0.258333333333333E+04   0.505000000000000E+04   0.983486843109131E+01  1    1   65   33 4          1   0.1512602E+00   0.1000000E+01   0.1982465E+00   0.321512601757662E+04   0.360000000000000E+04  -0.148812047817331E+02 0
         54     1  2   0.000000000000000E+00   0.159895411627788E+05  1    1   50   26 6          1   0.8333333E+00   0.1666667E+00   0.1000000E+01   0.258333333333333E+04   0.501666666666667E+04   0.983486843109131E+01  1    1   66   28 2          1   0.1000000E+01   0.8188973E+00   0.2279100E+00   0.280000000000000E+04   0.348188973030440E+04  -0.144144885595028E+02 0
         55     1  2   0.000000000000000E+00   0.166772503702837E+05  1    1   46   27 6          1   0.1666667E+00   0.8333333E+00   0.1000000E+01   0.261666666666667E+04   0.548333333333333E+04   0.101925802230835E+02  1    1   56   37 1          1   0.0000000E+00   0.2913229E+00   0.5939376E-01   0.360000000000000E+04   0.442913229061670E+04  -0.184448373872117E+02 0
         56     1  2   0.000000000000000E+00   0.160945365935317E+05  1    1   46   27 6          1   0.1666667E+00   0.5000000E+00   0.1000000E+01   0.261666666666667E+04   0.545000000000000E+04   0.101925802230835E+02  1    1   57   36 4          1   0.9419340E+00   0.1000000E+01   0.7395150E-01   0.359419339770433E+04   0.440000000000000E+04  -0.180690604366828E+02 0
         57     1  2   0.000000000000000E+00   0.152689910102721E+05  1    1   46   27 6          1   0.1666667E+00   0.1666667E+00   0.1000000E+01   0.261666666666667E+04   0.541666666666667E+04   0.101925802230835E+02  1    1   57   36 4          1   0.6858345E+00   0.1000000E+01   0.7857623E-01   0.356858345305391E+04   0.440000000000000E+04  -0.179483045216598E+02 0
         58     1  2   0.000000000000000E+00   0.157712353105957E+05  1    1   46   27 6          1   0.5000000E+00   0.8333333E+00   0.1000000E+01   0.265000000000000E+04   0.548333333333333E+04   0.101925802230835E+02  1    1   56   37 4          1   0.3478566E+00   0.1000000E+01   0.6532086E-01   0.363478565997289E+04   0.450000000000000E+04  -0.182896425833015E+02 0
         59     1  2   0.000000000000000E+00   0.152513892499275E+05  1    1   46   27 6          1   0.5000000E+00   0.5000000E+00   0.1000000E+01   0.265000000000000E+04   0.545000000000000E+04   0.101925802230835E+02  1    1   56   37 1          1   0.0000000E+00   0.3436664E+00   0.7975756E-01   0.360000000000000E+04   0.443436663561753E+04  -0.179116327768903E+02 0
         60     1  2   0.000000000000000E+00   0.147877394185844E+05  1    1   46   27 6          1   0.5000000E+00   0.1666667E+00   0.1000000E+01   0.265000000000000E+04   0.541666666666667E+04   0.101925802230835E+02  1    1   57   36 4          1   0.9783979E+00   0.1000000E+01   0.9775649E-01   0.359783978583782E+04   0.440000000000000E+04  -0.174474909608651E+02 0
         61     1  2   0.000000000000000E+00   0.154109175203191E+05  1    1   46   27 6          1   0.8333333E+00   0.8333333E+00   0.1000000E+01   0.268333333333333E+04   0.548333333333333E+04   0.101925802230835E+02  1    1   56   37 4          1   0.8616641E+00   0.1000000E+01   0.9131780E-01   0.368616640882356E+04   0.450000000000000E+04  -0.176089401984139E+02 0
         62     1  2   0.000000000000000E+00   0.144418078668894E+05  1    1   46   27 6          1   0.8333333E+00   0.5000000E+00   0.1000000E+01   0.268333333333333E+04   0.545000000000000E+04   0.101925802230835E+02  1    1   56   37 4          1   0.3080229E+00   0.1000000E+01   0.8799563E-01   0.363080228972780E+04   0.450000000000000E+04  -0.176959277034642E+02 0
         63     1  2   0.000000000000000E+00   0.139879508495073E+05  1    1   46   27 6          1   0.8333333E+00   0.1666667E+00   0.1000000E+01   0.268333333333333E+04   0.541666666666667E+04   0.101925802230835E+02  1    1   56   37 1          1   0.0000000E+00   0.3694387E+00   0.1032587E+00   0.360000000000000E+04   0.443694386999855E+04  -0.172962794859804E+02 0
         64     1  2   0.000000000000000E+00   0.144646783253812E+05  1    1   47   27 6          1   0.1666667E+00   0.8333333E+00   0.1000000E+01   0.261666666666667E+04   0.538333333333333E+04   0.101183815002441E+02  1    1   57   36 4          1   0.1853117E+00   0.1000000E+01   0.7911576E-01   0.351853117196505E+04   0.440000000000000E+04  -0.179342170637413E+02 0
         65     1  2   0.000000000000000E+00   0.140380372463885E+05  1    1   47   27 6          1   0.1666667E+00   0.5000000E+00   0.1000000E+01   0.261666666666667E+04   0.535000000000000E+04   0.101183815002441E+02  1    1   57   36 1          1   0.0000000E+00   0.6249877E+00   0.9034678E-01   0.350000000000000E+04   0.436249877365339E+04  -0.176409649857819E+02 0
         66     1  2   0.000000000000000E+00   0.137377690508400E+05  1    1   47   27 6          1   0.1666667E+00   0.1666667E+00   0.1000000E+01   0.261666666666667E+04   0.531666666666667E+04   0.101183815002441E+02  1    1   57   36 1          1   0.0000000E+00   0.1532326E+00   0.1037667E+00   0.350000000000000E+04   0.431532326185617E+04  -0.172905577109652E+02 0
         67     1  2   0.000000000000000E+00   0.140640531039059E+05  1    1   47   27 6          1   0.5000000E+00   0.8333333E+00   0.1000000E+01   0.265000000000000E+04   0.538333333333333E+04   0.101183815002441E+02  1    1   57   36 4          1   0.7557833E+00   0.1000000E+01   0.1054717E+00   0.357557832712343E+04   0.440000000000000E+04  -0.172460409982022E+02 0
         68     1  2   0.000000000000000E+00   0.133723566708283E+05  1    1   47   27 6          1   0.5000000E+00   0.5000000E+00   0.1000000E+01   0.265000000000000E+04   0.535000000000000E+04   0.101183815002441E+02  1    1   57   36 4          1   0.3497670E+00   0.1000000E+01   0.1080632E+00   0.353497669643619E+04   0.440000000000000E+04  -0.171783747738380E+02 0
         69     1  2   0.000000000000000E+00   0.128598977604865E+05  1    1   47   27 6          1   0.5000000E+00   0.1666667E+00   0.1000000E+01   0.265000000000000E+04   0.531666666666667E+04   0.101183815002441E+02  1    1   57   36 1          1   0.0000000E+00   0.7891908E+00   0.1156638E+00   0.350000000000000E+04   0.437891908238765E+04  -0.169799163738316E+02 0
         70     1  2   0.000000000000000E+00   0.136281550169771E+05  1    1   47   27 6          1   0.8333333E+00   0.8333333E+00   0.1000000E+01   0.268333333333333E+04   0.538333333333333E+04   0.101183815002441E+02  1    1   57   36 4          1   0.9945241E+00   0.1000000E+01   0.1227339E+00   0.359945241227059E+04   0.440000000000000E+04  -0.167953096997738E+02 0
         71     1  2   0.000000000000000E+00   0.129911068665221E+05  1    1   47   27 6          1   0.8333333E+00   0.5000000E+00   0.1000000E+01   0.268333333333333E+04   0.535000000000000E+04   0.101183815002441E+02  1    1   57   36 4          1   0.7910879E+00   0.1000000E+01   0.1331994E+00   0.357910879253498E+04   0.440000000000000E+04  -0.165220447318546E+02 0
         72     1  2   0.000000000000000E+00   0.123675695434546E+05  1    1   47   27 6          1   0.8333333E+00   0.1666667E+00   0.1000000E+01   0.268333333333333E+04   0.531666666666667E+04   0.101183815002441E+02  1    1   57   36 4          1   0.4624129E+00   0.1000000E+01   0.1384720E+00   0.354624129127830E+04   0.440000000000000E+04  -0.163843720569801E+02 0
         73     1  2   0.000000000000000E+00   0.155238249862902E+05  1    1   48   27 6          1   0.1666667E+00   0.8333333E+00   0.1000000E+01   0.261666666666667E+04   0.528333333333333E+04   0.100227146148682E+02  1    1   57   36 3          1   0.2464605E+00   0.0000000E+00   0.1677580E+00   0.352464604512013E+04   0.430000000000000E+04  -0.156196903386356E+02 0
         74     1  2   0.000000000000000E+00   0.154212400678255E+05  1    1   48   27 6          1   0.1666667E+00   0.5000000E+00   0.1000000E+01   0.261666666666667E+04   0.525000000000000E+04   0.100227146148682E+02  1    1   60   35 4          1   0.5950715E+00   0.1000000E+01   0.1821749E+00   0.345950714805638E+04   0.410000000000000E+04  -0.152626833815256E+02 0
         75     1  2   0.000000000000000E+00   0.148198163177945E+05  1    1   48   27 6          1   0.1666667E+00   0.1666667E+00   0.1000000E+01   0.261666666666667E+04   0.521666666666667E+04   0.100227146148682E+02  1    1   60   35 4          1   0.5940631E+00   0.1000000E+01   0.1850729E+00   0.345940630554357E+04   0.410000000000000E+04  -0.151873234667455E+02 0
         76     1  2   0.000000000000000E+00   0.126150666027212E+05  1    1   48   27 6          1   0.5000000E+00   0.8333333E+00   0.1000000E+01   0.265000000000000E+04   0.528333333333333E+04   0.100227146148682E+02  1    1   57   36 1          1   0.0000000E+00   0.3415472E+00   0.1285551E+00   0.350000000000000E+04   0.433415471828866E+04  -0.166433119666824E+02 0
         77     1  2   0.000000000000000E+00   0.136039974821639E+05  1    1   48   27 6          1   0.5000000E+00   0.5000000E+00   0.1000000E+01   0.265000000000000E+04   0.525000000000000E+04   0.100227146148682E+02  1    1   57   36 3          1   0.2202283E+00   0.0000000E+00   0.1667552E+00   0.352202282892434E+04   0.430000000000000E+04  -0.156458730532156E+02 0
         78     1  2   0.000000000000000E+00   0.146947801234586E+05  1    1   48   27 6          1   0.5000000E+00   0.1666667E+00   0.1000000E+01   0.265000000000000E+04   0.521666666666667E+04   0.100227146148682E+02  1    1   57   36 3          1   0.2511153E+00   0.0000000E+00   0.1983202E+00   0.352511153292908E+04   0.430000000000000E+04  -0.148216836356068E+02 0
         79     1  2   0.000000000000000E+00   0.118153256053934E+05  1    1   48   27 6          1   0.8333333E+00   0.8333333E+00   0.1000000E+01   0.268333333333333E+04   0.528333333333333E+04   0.100227146148682E+02  1    1   57   36 1          1   0.0000000E+00   0.9083698E+00   0.1441001E+00   0.350000000000000E+04   0.439083698054997E+04  -0.162374169230165E+02 0
         80     1  2   0.000000000000000E+00   0.116162987440166E+05  1    1   48   27 6          1   0.8333333E+00   0.5000000E+00   0.1000000E+01   0.268333333333333E+04   0.525000000000000E+04   0.100227146148682E+02  1    1   57   36 1          1   0.0000000E+00   0.4842705E+00   0.1561447E+00   0.350000000000000E+04   0.434842705095920E+04  -0.159229230036219E+02 0
         81     1  2   0.000000000000000E+00   0.114322347241197E+05  1    1   48   27 6          1   0.8333333E+00   0.1666667E+00   0.1000000E+01   0.268333333333333E+04   0.521666666666667E+04   0.100227146148682E+02  1    1   57   36 1          1   0.0000000E+00   0.6358593E-01   0.1665382E+00   0.350000000000000E+04   0.430635859270872E+04  -0.156515379276338E+02 0
         82     1  2   0.000000000000000E+00   0.142609792701231E+05  1    1   49   27 6          1   0.1666667E+00   0.8333333E+00   0.1000000E+01   0.261666666666667E+04   0.518333333333333E+04   0.990333557128906E+01  1    1   60   35 4          1   0.5922062E+00   0.1000000E+01   0.1877266E+00   0.345922062472055E+04   0.410000000000000E+04  -0.151183139854637E+02 0
         83     1  2   0.000000000000000E+00   0.136473058896736E+05  1    1   49   27 6          1   0.1666667E+00   0.5000000E+00   0.1000000E+01   0.261666666666667E+04   0.515000000000000E+04   0.990333557128906E+01  1    1   60   35 4          1   0.5816455E+00   0.1000000E+01   0.1880139E+00   0.345816454705298E+04   0.410000000000000E+04  -0.151108442198311E+02 0
         84     1  2   0.000000000000000E+00   0.127039634950961E+05  1    1   49   27 6          1   0.1666667E+00   0.1666667E+00   0.1000000E+01   0.261666666666667E+04   0.511666666666667E+04   0.990333557128906E+01  1    1   60   35 4          1   0.3297438E+00   0.1000000E+01   0.1808663E+00   0.343297437585230E+04   0.410000000000000E+04  -0.152967105471152E+02 0
         85     1  2   0.000000000000000E+00   0.140362068386864E+05  1    1   49   27 6          1   0.5000000E+00   0.8333333E+00   0.1000000E+01   0.265000000000000E+04   0.518333333333333E+04   0.990333557128906E+01  1    1   60   35 4          1   0.5947165E+00   0.1000000E+01   0.2036546E+00   0.345947164900235E+04   0.410000000000000E+04  -0.147041201906530E+02 0
         86     1  2   0.000000000000000E+00   0.135233052647438E+05  1    1   49   27 6          1   0.5000000E+00   0.5000000E+00   0.1000000E+01   0.265000000000000E+04   0.515000000000000E+04   0.990333557128906E+01  1    1   60   35 4          1   0.5935206E+00   0.1000000E+01   0.2081452E+00   0.345935205776324E+04   0.410000000000000E+04  -0.145873439893944E+02 0
         87     1  2   0.000000000000000E+00   0.130236050167302E+05  1    1   49   27 6          1   0.5000000E+00   0.1666667E+00   0.1000000E+01   0.265000000000000E+04   0.511666666666667E+04   0.990333557128906E+01  1    1   60   35 4          1   0.5909806E+00   0.1000000E+01   0.2126280E+00   0.345909806246698E+04   0.410000000000000E+04  -0.144707722463689E+02 0
         88     1  2   0.000000000000000E+00   0.133888099075042E+05  1    1   49   27 6          1   0.8333333E+00   0.8333333E+00   0.1000000E+01   0.268333333333333E+04   0.518333333333333E+04   0.990333557128906E+01  1    1   57   36 3          1   0.2475253E+00   0.0000000E+00   0.2094081E+00   0.352475252583570E+04   0.430000000000000E+04  -0.145321682143963E+02 0
         89     1  2   0.000000000000000E+00   0.133121583738433E+05  1    1   49   27 6          1   0.8333333E+00   0.5000000E+00   0.1000000E+01   0.268333333333333E+04   0.515000000000000E+04   0.990333557128906E+01  1    1   60   35 4          1   0.5951223E+00   0.1000000E+01   0.2216641E+00   0.345951223274427E+04   0.410000000000000E+04  -0.142357954847885E+02 0
         90     1  2   0.000000000000000E+00   0.128288514924112E+05  1    1   49   27 6          1   0.8333333E+00   0.1666667E+00   0.1000000E+01   0.268333333333333E+04   0.511666666666667E+04   0.990333557128906E+01  1    1   60   35 4          1   0.5942963E+00   0.1000000E+01   0.2279854E+00   0.345942963124779E+04   0.410000000000000E+04  -0.140714159701831E+02 0
         91     1  2   0.000000000000000E+00   0.126481571773540E+05  1    1   50   27 6          1   0.1666667E+00   0.8333333E+00   0.1000000E+01   0.261666666666667E+04   0.508333333333333E+04   0.975887298583984E+01  1    1   60   35 1          1   0.0000000E+00   0.5862980E+00   0.1875453E+00   0.340000000000000E+04   0.405862979774035E+04  -0.151230295868815E+02 0
         92     1  2   0.000000000000000E+00   0.129240030703984E+05  1    1   50   27 6          1   0.1666667E+00   0.5000000E+00   0.1000000E+01   0.261666666666667E+04   0.505000000000000E+04   0.975887298583984E+01  1    1   60   35 1          1   0.0000000E+00   0.6218195E-01   0.1959975E+00   0.340000000000000E+04   0.400621819548271E+04  -0.149032369382155E+02 0
         93     1  2   0.000000000000000E+00   0.184536531813125E+05  1    1   50   27 6          1   0.1666667E+00   0.1666667E+00   0.1000000E+01   0.261666666666667E+04   0.501666666666667E+04   0.975887298583984E+01  1    1   60   35 3          1   0.3422948E+00   0.0000000E+00   0.2460821E+00   0.343422947956398E+04   0.400000000000000E+04  -0.136008260578516E+02 0
         94     1  2   0.000000000000000E+00   0.124339326939102E+05  1    1   50   27 6          1   0.5000000E+00   0.8333333E+00   0.1000000E+01   0.265000000000000E+04   0.508333333333333E+04   0.975887298583984E+01  1    1   60   35 4          1   0.5734905E+00   0.1000000E+01   0.2151079E+00   0.345734904529876E+04   0.410000000000000E+04  -0.144062848658325E+02 0
         95     1  2   0.000000000000000E+00   0.114370405445819E+05  1    1   50   27 6          1   0.5000000E+00   0.5000000E+00   0.1000000E+01   0.265000000000000E+04   0.505000000000000E+04   0.975887298583984E+01  1    1   60   35 4          1   0.9176173E-02   0.1000000E+01   0.2115899E+00   0.340091761729439E+04   0.410000000000000E+04  -0.144977677545410E+02 0
         96     1  2   0.000000000000000E+00   0.116553935403979E+05  1    1   50   27 6          1   0.5000000E+00   0.1666667E+00   0.1000000E+01   0.265000000000000E+04   0.501666666666667E+04   0.975887298583984E+01  1    1   60   35 1          1   0.0000000E+00   0.5429872E+00   0.2209517E+00   0.340000000000000E+04   0.405429872141052E+04  -0.142543215479985E+02 0
         97     1  2   0.000000000000000E+00   0.123789487122440E+05  1    1   50   27 6          1   0.8333333E+00   0.8333333E+00   0.1000000E+01   0.268333333333333E+04   0.508333333333333E+04   0.975887298583984E+01  1    1   60   35 4          1   0.5929577E+00   0.1000000E+01   0.2343875E+00   0.345929577112811E+04   0.410000000000000E+04  -0.139049332981737E+02 0
         98     1  2   0.000000000000000E+00   0.119176071981643E+05  1    1   50   27 6          1   0.8333333E+00   0.5000000E+00   0.1000000E+01   0.268333333333333E+04   0.505000000000000E+04   0.975887298583984E+01  1    1   60   35 4          1   0.5890733E+00   0.1000000E+01   0.2405421E+00   0.345890732903926E+04   0.410000000000000E+04  -0.137448872236797E+02 0
         99     1  2   0.000000000000000E+00   0.113343748549500E+05  1    1   50   27 6          1   0.8333333E+00   0.1666667E+00   0.1000000E+01   0.268333333333333E+04   0.501666666666667E+04   0.975887298583984E+01  1    1   60   35 4          1   0.5592474E+00   0.1000000E+01   0.2456857E+00   0.345592474496909E+04   0.410000000000000E+04  -0.136111335847431E+02 0
        100     1  2   0.000000000000000E+00   0.158208793048903E+05  1    1   51   27 6          1   0.1666667E+00   0.8333333E+00   0.1000000E+01   0.261666666666667E+04   0.498333333333333E+04   0.958858108520508E+01  1    1   65   33 4          1   0.7754279E+00   0.1000000E+01   0.2191746E+00   0.327754279049053E+04   0.360000000000000E+04  -0.143408320428980E+02 0
        101     1  2   0.000000000000000E+00   0.164061791695032E+05  1    1   51   27 6          1   0.1666667E+00   0.5000000E+00   0.1000000E+01   0.261666666666667E+04   0.495000000000000E+04   0.958858108520508E+01  1    1   66   28 2          1   0.1000000E+01   0.6094668E+00   0.2593398E+00   0.280000000000000E+04   0.346094668336591E+04  -0.136442203415526E+02 0
        102     1  2   0.000000000000000E+00   0.172838534481719E+05  1    1   51   27 6          1   0.1666667E+00   0.1666667E+00   0.1000000E+01   0.261666666666667E+04   0.491666666666667E+04   0.958858108520508E+01  1    1   64   27 3          1   0.4591155E+00   0.0000000E+00   0.3125521E+00   0.264591154604636E+04   0.360000000000000E+04  -0.123723670572012E+02 0
        103     1  2   0.000000000000000E+00   0.119184236891021E+05  1    1   51   27 6          1   0.5000000E+00   0.8333333E+00   0.1000000E+01   0.265000000000000E+04   0.498333333333333E+04   0.958858108520508E+01  1    1   60   35 1          1   0.0000000E+00   0.6210784E-01   0.2272822E+00   0.340000000000000E+04   0.400621078441662E+04  -0.140897027697107E+02 0
        104     1  2   0.000000000000000E+00   0.171520038492210E+05  1    1   51   27 6          1   0.5000000E+00   0.5000000E+00   0.1000000E+01   0.265000000000000E+04   0.495000000000000E+04   0.958858108520508E+01  1    1   60   35 3          1   0.3422948E+00   0.0000000E+00   0.2552213E+00   0.343422947773013E+04   0.400000000000000E+04  -0.133631683485242E+02 0
        105     1  2   0.000000000000000E+00   0.141923906120201E+05  1    1   51   27 6          1   0.5000000E+00   0.1666667E+00   0.1000000E+01   0.265000000000000E+04   0.491666666666667E+04   0.958858108520508E+01  1    1   64   34 4          1   0.2258213E+00   0.1000000E+01   0.2358914E+00   0.332258212618062E+04   0.370000000000000E+04  -0.138740577859921E+02 0
        106     1  2   0.000000000000000E+00   0.105263446371358E+05  1    1   51   27 6          1   0.8333333E+00   0.8333333E+00   0.1000000E+01   0.268333333333333E+04   0.498333333333333E+04   0.958858108520508E+01  1    1   60   35 1          1   0.0000000E+00   0.9404927E+00   0.2495506E+00   0.340000000000000E+04   0.409404926938654E+04  -0.135106301472428E+02 0
        107     1  2   0.000000000000000E+00   0.107522096721478E+05  1    1   51   27 6          1   0.8333333E+00   0.5000000E+00   0.1000000E+01   0.268333333333333E+04   0.495000000000000E+04   0.958858108520508E+01  1    1   60   35 1          1   0.0000000E+00   0.5099771E+00   0.2565740E+00   0.340000000000000E+04   0.405099771296819E+04  -0.133279901802899E+02 0
        108     1  2   0.000000000000000E+00   0.110043827028045E+05  1    1   51   27 6          1   0.8333333E+00   0.1666667E+00   0.1000000E+01   0.268333333333333E+04   0.491666666666667E+04   0.958858108520508E+01  1    1   60   35 1          1   0.0000000E+00   0.6471264E-01   0.2610158E+00   0.340000000000000E+04   0.400647126409123E+04  -0.132124848088505E+02 0
        109     1  2   0.000000000000000E+00   0.148052537304233E+05  1    1   46   28 6          1   0.1666667E+00   0.8333333E+00   0.1000000E+01   0.271666666666667E+04   0.548333333333333E+04   0.101191015243530E+02  1    1   55   38 1          1   0.0000000E+00   0.1506206E+00   0.1082424E+00   0.370000000000000E+04   0.451506205995177E+04  -0.171642101190703E+02 0
        110     1  2   0.000000000000000E+00   0.141750392099162E+05  1    1   46   28 6          1   0.1666667E+00   0.5000000E+00   0.1000000E+01   0.271666666666667E+04   0.545000000000000E+04   0.101191015243530E+02  1    1   56   37 4          1   0.8195697E+00   0.1000000E+01   0.1134615E+00   0.368195697135529E+04   0.450000000000000E+04  -0.170291313449465E+02 0
        111     1  2   0.000000000000000E+00   0.132694010831926E+05  1    1   46   28 6          1   0.1666667E+00   0.1666667E+00   0.1000000E+01   0.271666666666667E+04   0.541666666666667E+04   0.101191015243530E+02  1    1   56   37 4          1   0.2780602E+00   0.1000000E+01   0.1131744E+00   0.362780601840644E+04   0.450000000000000E+04  -0.170366493317698E+02 0
        112     1  2   0.000000000000000E+00   0.140107770081380E+05  1    1   46   28 6          1   0.5000000E+00   0.8333333E+00   0.1000000E+01   0.275000000000000E+04   0.548333333333333E+04   0.101191015243530E+02  1    1   55   38 1          1   0.0000000E+00   0.6252336E+00   0.1225025E+00   0.370000000000000E+04   0.456252336482603E+04  -0.167906165423552E+02 0
        113     1  2   0.000000000000000E+00   0.137242309607718E+05  1    1   46   28 6          1   0.5000000E+00   0.5000000E+00   0.1000000E+01   0.275000000000000E+04   0.545000000000000E+04   0.101191015243530E+02  1    1   55   38 1          1   0.0000000E+00   0.8467923E-01   0.1323949E+00   0.370000000000000E+04   0.450846792298625E+04  -0.165314525561690E+02 0
        114     1  2   0.000000000000000E+00   0.130756233138123E+05  1    1   46   28 6          1   0.5000000E+00   0.1666667E+00   0.1000000E+01   0.275000000000000E+04   0.541666666666667E+04   0.101191015243530E+02  1    1   56   37 4          1   0.7841670E+00   0.1000000E+01   0.1378711E+00   0.367841670466683E+04   0.450000000000000E+04  -0.163899923545442E+02 0
        115     1  2   0.000000000000000E+00   0.134639457660643E+05  1    1   46   28 6          1   0.8333333E+00   0.8333333E+00   0.1000000E+01   0.278333333333333E+04   0.548333333333333E+04   0.101191015243530E+02  1    1   55   38 4          1   0.2805184E+00   0.1000000E+01   0.1469782E+00   0.372805183757156E+04   0.460000000000000E+04  -0.161493908467445E+02 0
        116     1  2   0.000000000000000E+00   0.130343583675723E+05  1    1   46   28 6          1   0.8333333E+00   0.5000000E+00   0.1000000E+01   0.278333333333333E+04   0.545000000000000E+04   0.101191015243530E+02  1    1   55   38 1          1   0.0000000E+00   0.4477735E+00   0.1510349E+00   0.370000000000000E+04   0.454477735290722E+04  -0.160431103485323E+02 0
        117     1  2   0.000000000000000E+00   0.127347111016214E+05  1    1   46   28 6          1   0.8333333E+00   0.1666667E+00   0.1000000E+01   0.278333333333333E+04   0.541666666666667E+04   0.101191015243530E+02  1    1   55   38 1          1   0.0000000E+00   0.2731664E-01   0.1575799E+00   0.370000000000000E+04   0.450273166443473E+04  -0.158716424192469E+02 0
        118     1  2   0.000000000000000E+00   0.128926970499547E+05  1    1   47   28 6          1   0.1666667E+00   0.8333333E+00   0.1000000E+01   0.271666666666667E+04   0.538333333333333E+04   0.100393257141113E+02  1    1   56   37 1          1   0.0000000E+00   0.3769298E+00   0.1287368E+00   0.360000000000000E+04   0.443769298487249E+04  -0.166291637204165E+02 0
        119     1  2   0.000000000000000E+00   0.126036543481132E+05  1    1   47   28 6          1   0.1666667E+00   0.5000000E+00   0.1000000E+01   0.271666666666667E+04   0.535000000000000E+04   0.100393257141113E+02  1    1   56   37 1          1   0.0000000E+00   0.8167229E-02   0.1486157E+00   0.360000000000000E+04   0.440081672290331E+04  -0.161086562459288E+02 0
        120     1  2   0.000000000000000E+00   0.120284215354661E+05  1    1   47   28 6          1   0.1666667E+00   0.1666667E+00   0.1000000E+01   0.271666666666667E+04   0.531666666666667E+04   0.100393257141113E+02  1    1   57   36 4          1   0.8262583E+00   0.1000000E+01   0.1619778E+00   0.358262582562019E+04   0.440000000000000E+04  -0.157706149891267E+02 0
        121     1  2   0.000000000000000E+00   0.122295254503445E+05  1    1   47   28 6          1   0.5000000E+00   0.8333333E+00   0.1000000E+01   0.275000000000000E+04   0.538333333333333E+04   0.100393257141113E+02  1    1   56   37 4          1   0.2398895E+00   0.1000000E+01   0.1399771E+00   0.362398894937112E+04   0.450000000000000E+04  -0.163348482799078E+02 0
        122     1  2   0.000000000000000E+00   0.119279948305412E+05  1    1   47   28 6          1   0.5000000E+00   0.5000000E+00   0.1000000E+01   0.275000000000000E+04   0.535000000000000E+04   0.100393257141113E+02  1    1   56   37 1          1   0.0000000E+00   0.3816544E+00   0.1556376E+00   0.360000000000000E+04   0.443816543540305E+04  -0.159247932820813E+02 0
        123     1  2   0.000000000000000E+00   0.116660725985252E+05  1    1   47   28 6          1   0.5000000E+00   0.1666667E+00   0.1000000E+01   0.275000000000000E+04   0.531666666666667E+04   0.100393257141113E+02  1    1   56   37 1          1   0.0000000E+00   0.3040063E-01   0.1759462E+00   0.360000000000000E+04   0.440304006265604E+04  -0.153930345059233E+02 0
        124     1  2   0.000000000000000E+00   0.120681815376439E+05  1    1   47   28 6          1   0.8333333E+00   0.8333333E+00   0.1000000E+01   0.278333333333333E+04   0.538333333333333E+04   0.100393257141113E+02  1    1   56   37 4          1   0.7378551E+00   0.1000000E+01   0.1642658E+00   0.367378550900292E+04   0.450000000000000E+04  -0.156988739288085E+02 0
        125     1  2   0.000000000000000E+00   0.112748147301557E+05  1    1   47   28 6          1   0.8333333E+00   0.5000000E+00   0.1000000E+01   0.278333333333333E+04   0.535000000000000E+04   0.100393257141113E+02  1    1   56   37 4          1   0.1833559E+00   0.1000000E+01   0.1686777E+00   0.361833559429038E+04   0.450000000000000E+04  -0.155833536064460E+02 0
        126     1  2   0.000000000000000E+00   0.110367407972888E+05  1    1   47   28 6          1   0.8333333E+00   0.1666667E+00   0.1000000E+01   0.278333333333333E+04   0.531666666666667E+04   0.100393257141113E+02  1    1   56   37 1          1   0.0000000E+00   0.3858999E+00   0.1847793E+00   0.360000000000000E+04   0.443858999305900E+04  -0.151617510917215E+02 0
        127     1  2   0.000000000000000E+00   0.114679327446073E+05  1    1   48   28 6          1   0.1666667E+00   0.8333333E+00   0.1000000E+01   0.271666666666667E+04   0.528333333333333E+04   0.993784332275391E+01  1    1   57   36 4          1   0.5447276E+00   0.1000000E+01   0.1698025E+00   0.355447276240746E+04   0.440000000000000E+04  -0.155663062130748E+02 0
        128     1  2   0.000000000000000E+00   0.108960221866522E+05  1    1   48   28 6          1   0.1666667E+00   0.5000000E+00   0.1000000E+01   0.271666666666667E+04   0.525000000000000E+04   0.993784332275391E+01  1    1   57   36 4          1   0.2063384E-01   0.1000000E+01   0.1751052E+00   0.350206338429971E+04   0.440000000000000E+04  -0.154278476058024E+02 0
        129     1  2   0.000000000000000E+00   0.106978351700871E+05  1    1   48   28 6          1   0.1666667E+00   0.1666667E+00   0.1000000E+01   0.271666666666667E+04   0.521666666666667E+04   0.993784332275391E+01  1    1   57   36 1          1   0.0000000E+00   0.6227238E+00   0.1865990E+00   0.350000000000000E+04   0.436227237597116E+04  -0.151277324853866E+02 0
        130     1  2   0.000000000000000E+00   0.111677313763562E+05  1    1   48   28 6          1   0.5000000E+00   0.8333333E+00   0.1000000E+01   0.275000000000000E+04   0.528333333333333E+04   0.993784332275391E+01  1    1   57   36 4          1   0.8553683E+00   0.1000000E+01   0.1916982E+00   0.358553682718722E+04   0.440000000000000E+04  -0.149945887760219E+02 0
        131     1  2   0.000000000000000E+00   0.106597850127795E+05  1    1   48   28 6          1   0.5000000E+00   0.5000000E+00   0.1000000E+01   0.275000000000000E+04   0.525000000000000E+04   0.993784332275391E+01  1    1   57   36 4          1   0.6099137E+00   0.1000000E+01   0.2021194E+00   0.356099136917234E+04   0.440000000000000E+04  -0.147224816705307E+02 0
        132     1  2   0.000000000000000E+00   0.101420257875419E+05  1    1   48   28 6          1   0.5000000E+00   0.1666667E+00   0.1000000E+01   0.275000000000000E+04   0.521666666666667E+04   0.993784332275391E+01  1    1   57   36 4          1   0.1946524E+00   0.1000000E+01   0.2099144E+00   0.351946524097107E+04   0.440000000000000E+04  -0.145189475393073E+02 0
        133     1  2   0.000000000000000E+00   0.108120557107572E+05  1    1   48   28 6          1   0.8333333E+00   0.8333333E+00   0.1000000E+01   0.278333333333333E+04   0.528333333333333E+04   0.993784332275391E+01  1    1   56   37 1          1   0.0000000E+00   0.4489000E-01   0.2052600E+00   0.360000000000000E+04   0.440448900021904E+04  -0.146254842165471E+02 0
        134     1  2   0.000000000000000E+00   0.103754386928793E+05  1    1   48   28 6          1   0.8333333E+00   0.5000000E+00   0.1000000E+01   0.278333333333333E+04   0.525000000000000E+04   0.993784332275391E+01  1    1   57   36 4          1   0.8755878E+00   0.1000000E+01   0.2228825E+00   0.358755877837266E+04   0.440000000000000E+04  -0.141803402119966E+02 0
        135     1  2   0.000000000000000E+00   0.990413643535616E+04  1    1   48   28 6          1   0.8333333E+00   0.1666667E+00   0.1000000E+01   0.278333333333333E+04   0.521666666666667E+04   0.993784332275391E+01  1    1   57   36 4          1   0.6632467E+00   0.1000000E+01   0.2363859E+00   0.356632467356957E+04   0.440000000000000E+04  -0.138277521704043E+02 0
        136     1  2   0.000000000000000E+00   0.105385950286363E+05  1    1   49   28 6          1   0.1666667E+00   0.8333333E+00   0.1000000E+01   0.271666666666667E+04   0.518333333333333E+04   0.981306648254395E+01  1    1   57   36 1          1   0.0000000E+00   0.2262590E+00   0.1964281E+00   0.350000000000000E+04   0.432262589977215E+04  -0.148710865731098E+02 0
        137     1  2   0.000000000000000E+00   0.119132110553735E+05  1    1   49   28 6          1   0.1666667E+00   0.5000000E+00   0.1000000E+01   0.271666666666667E+04   0.515000000000000E+04   0.981306648254395E+01  1    1   57   36 3          1   0.2342975E+00   0.0000000E+00   0.2217543E+00   0.352342974939281E+04   0.430000000000000E+04  -0.142097969372362E+02 0
        138     1  2   0.000000000000000E+00   0.127590044983546E+05  1    1   49   28 6          1   0.1666667E+00   0.1666667E+00   0.1000000E+01   0.271666666666667E+04   0.511666666666667E+04   0.981306648254395E+01  1    1   57   36 3          1   0.2511631E+00   0.0000000E+00   0.2380661E+00   0.352511631364821E+04   0.430000000000000E+04  -0.137838810426825E+02 0
        139     1  2   0.000000000000000E+00   0.986480537533760E+04  1    1   49   28 6          1   0.5000000E+00   0.8333333E+00   0.1000000E+01   0.275000000000000E+04   0.518333333333333E+04   0.981306648254395E+01  1    1   57   36 1          1   0.0000000E+00   0.7461726E+00   0.2194851E+00   0.350000000000000E+04   0.437461725715185E+04  -0.142690477954938E+02 0
        140     1  2   0.000000000000000E+00   0.972933060190573E+04  1    1   49   28 6          1   0.5000000E+00   0.5000000E+00   0.1000000E+01   0.275000000000000E+04   0.515000000000000E+04   0.981306648254395E+01  1    1   57   36 1          1   0.0000000E+00   0.3704570E+00   0.2286746E+00   0.350000000000000E+04   0.433704570019249E+04  -0.140291016713889E+02 0
        141     1  2   0.000000000000000E+00   0.967794893564717E+04  1    1   49   28 6          1   0.5000000E+00   0.1666667E+00   0.1000000E+01   0.275000000000000E+04   0.511666666666667E+04   0.981306648254395E+01  1    1   57   36 3          1   0.2903453E-01   0.0000000E+00   0.2369575E+00   0.350290345285799E+04   0.430000000000000E+04  -0.138128285540687E+02 0
        142     1  2   0.000000000000000E+00   0.943583836808034E+04  1    1   49   28 6          1   0.8333333E+00   0.8333333E+00   0.1000000E+01   0.278333333333333E+04   0.518333333333333E+04   0.981306648254395E+01  1    1   57   36 4          1   0.3140249E+00   0.1000000E+01   0.2457367E+00   0.353140248754724E+04   0.440000000000000E+04  -0.135835965820165E+02 0
        143     1  2   0.000000000000000E+00   0.909977861470133E+04  1    1   49   28 6          1   0.8333333E+00   0.5000000E+00   0.1000000E+01   0.278333333333333E+04   0.515000000000000E+04   0.981306648254395E+01  1    1   57   36 1          1   0.0000000E+00   0.8480039E+00   0.2549511E+00   0.350000000000000E+04   0.438480039382344E+04  -0.133429989346358E+02 0
        144     1  2   0.000000000000000E+00   0.897186575631639E+04  1    1   49   28 6          1   0.8333333E+00   0.1666667E+00   0.1000000E+01   0.278333333333333E+04   0.511666666666667E+04   0.981306648254395E+01  1    1   57   36 1          1   0.0000000E+00   0.4994686E+00   0.2639114E+00   0.350000000000000E+04   0.434994685776100E+04  -0.131090370930731E+02 0
        145     1  2   0.000000000000000E+00   0.121916496249311E+05  1    1   50   28 6          1   0.1666667E+00   0.8333333E+00   0.1000000E+01   0.271666666666667E+04   0.508333333333333E+04   0.966411399841309E+01  1    1   60   35 4          1   0.5948132E+00   0.1000000E+01   0.2472169E+00   0.345948132387971E+04   0.410000000000000E+04  -0.135713147962697E+02 0
        146     1  2   0.000000000000000E+00   0.117676232393727E+05  1    1   50   28 6          1   0.1666667E+00   0.5000000E+00   0.1000000E+01   0.271666666666667E+04   0.505000000000000E+04   0.966411399841309E+01  1    1   60   35 4          1   0.5938620E+00   0.1000000E+01   0.2551629E+00   0.345938620139316E+04   0.410000000000000E+04  -0.133646850819362E+02 0
        147     1  2   0.000000000000000E+00   0.113632080292142E+05  1    1   50   28 6          1   0.1666667E+00   0.1666667E+00   0.1000000E+01   0.271666666666667E+04   0.501666666666667E+04   0.966411399841309E+01  1    1   60   35 4          1   0.5923218E+00   0.1000000E+01   0.2634171E+00   0.345923218096808E+04   0.410000000000000E+04  -0.131500405718182E+02 0
        148     1  2   0.000000000000000E+00   0.116575475799011E+05  1    1   50   28 6          1   0.5000000E+00   0.8333333E+00   0.1000000E+01   0.275000000000000E+04   0.508333333333333E+04   0.966411399841309E+01  1    1   57   36 3          1   0.2480721E+00   0.0000000E+00   0.2548575E+00   0.352480720870774E+04   0.430000000000000E+04  -0.133454423969116E+02 0
        149     1  2   0.000000000000000E+00   0.116057683959031E+05  1    1   50   28 6          1   0.5000000E+00   0.5000000E+00   0.1000000E+01   0.275000000000000E+04   0.505000000000000E+04   0.966411399841309E+01  1    1   60   35 4          1   0.5951692E+00   0.1000000E+01   0.2660213E+00   0.345951692398219E+04   0.410000000000000E+04  -0.130823209036479E+02 0
        150     1  2   0.000000000000000E+00   0.111992920008087E+05  1    1   50   28 6          1   0.5000000E+00   0.1666667E+00   0.1000000E+01   0.275000000000000E+04   0.501666666666667E+04   0.966411399841309E+01  1    1   60   35 4          1   0.5944811E+00   0.1000000E+01   0.2754848E+00   0.345944811301368E+04   0.410000000000000E+04  -0.128362296330473E+02 0
        151     1  2   0.000000000000000E+00   0.886235154311453E+04  1    1   50   28 6          1   0.8333333E+00   0.8333333E+00   0.1000000E+01   0.278333333333333E+04   0.508333333333333E+04   0.966411399841309E+01  1    1   57   36 1          1   0.0000000E+00   0.1443261E+00   0.2713328E+00   0.350000000000000E+04   0.431443260591614E+04  -0.129152594124621E+02 0
        152     1  2   0.000000000000000E+00   0.104407719380982E+05  1    1   50   28 6          1   0.8333333E+00   0.5000000E+00   0.1000000E+01   0.278333333333333E+04   0.505000000000000E+04   0.966411399841309E+01  1    1   57   36 3          1   0.2391852E+00   0.0000000E+00   0.2759655E+00   0.352391852026674E+04   0.430000000000000E+04  -0.127942954817781E+02 0
        153     1  2   0.000000000000000E+00   0.111546547711287E+05  1    1   50   28 6          1   0.8333333E+00   0.1666667E+00   0.1000000E+01   0.278333333333333E+04   0.501666666666667E+04   0.966411399841309E+01  1    1   57   36 3          1   0.2511240E+00   0.0000000E+00   0.2826621E+00   0.352511240186762E+04   0.430000000000000E+04  -0.126194403260957E+02 0
        154     1  2   0.000000000000000E+00   0.109234287020824E+05  1    1   51   28 6          1   0.1666667E+00   0.8333333E+00   0.1000000E+01   0.271666666666667E+04   0.498333333333333E+04   0.949061679840088E+01  1    1   60   35 4          1   0.5865907E+00   0.1000000E+01   0.2717416E+00   0.345865906784249E+04   0.410000000000000E+04  -0.129335683593347E+02 0
        155     1  2   0.000000000000000E+00   0.103412923504793E+05  1    1   51   28 6          1   0.1666667E+00   0.5000000E+00   0.1000000E+01   0.271666666666667E+04   0.495000000000000E+04   0.949061679840088E+01  1    1   60   35 4          1   0.5388309E+00   0.1000000E+01   0.2802342E+00   0.345388308748794E+04   0.410000000000000E+04  -0.127127266836803E+02 0
        156     1  2   0.000000000000000E+00   0.970015086308421E+04  1    1   51   28 6          1   0.1666667E+00   0.1666667E+00   0.1000000E+01   0.271666666666667E+04   0.491666666666667E+04   0.949061679840088E+01  1    1   60   35 1          1   0.0000000E+00   0.8937532E+00   0.2895390E+00   0.340000000000000E+04   0.408937531943174E+04  -0.124707620337080E+02 0
        157     1  2   0.000000000000000E+00   0.108178166920083E+05  1    1   51   28 6          1   0.5000000E+00   0.8333333E+00   0.1000000E+01   0.275000000000000E+04   0.498333333333333E+04   0.949061679840088E+01  1    1   60   35 4          1   0.5934356E+00   0.1000000E+01   0.2852356E+00   0.345934355967689E+04   0.410000000000000E+04  -0.125826677708011E+02 0
        158     1  2   0.000000000000000E+00   0.104459793262491E+05  1    1   51   28 6          1   0.5000000E+00   0.5000000E+00   0.1000000E+01   0.275000000000000E+04   0.495000000000000E+04   0.949061679840088E+01  1    1   60   35 4          1   0.5915051E+00   0.1000000E+01   0.2953443E+00   0.345915050941138E+04   0.410000000000000E+04  -0.123198000621031E+02 0
        159     1  2   0.000000000000000E+00   0.100226384192008E+05  1    1   51   28 6          1   0.5000000E+00   0.1666667E+00   0.1000000E+01   0.275000000000000E+04   0.491666666666667E+04   0.949061679840088E+01  1    1   60   35 4          1   0.5833294E+00   0.1000000E+01   0.3061005E+00   0.345833294483932E+04   0.410000000000000E+04  -0.120400933269475E+02 0
        160     1  2   0.000000000000000E+00   0.106635038311574E+05  1    1   51   28 6          1   0.8333333E+00   0.8333333E+00   0.1000000E+01   0.278333333333333E+04   0.498333333333333E+04   0.949061679840088E+01  1    1   60   35 4          1   0.5949022E+00   0.1000000E+01   0.2956107E+00   0.345949022424597E+04   0.410000000000000E+04  -0.123128728814382E+02 0
        161     1  2   0.000000000000000E+00   0.102997132718178E+05  1    1   51   28 6          1   0.8333333E+00   0.5000000E+00   0.1000000E+01   0.278333333333333E+04   0.495000000000000E+04   0.949061679840088E+01  1    1   60   35 4          1   0.5941322E+00   0.1000000E+01   0.3067326E+00   0.345941321665043E+04   0.410000000000000E+04  -0.120236563475787E+02 0
        162     1  2   0.000000000000000E+00   0.995464339349977E+04  1    1   51   28 6          1   0.8333333E+00   0.1666667E+00   0.1000000E+01   0.278333333333333E+04   0.491666666666667E+04   0.949061679840088E+01  1    1   60   35 4          1   0.5929986E+00   0.1000000E+01   0.3182309E+00   0.345929986132269E+04   0.410000000000000E+04  -0.117246503371705E+02 0
        163     1  2   0.000000000000000E+00   0.118066220791788E+05  1    1   47   29 6          1   0.1666667E+00   0.8333333E+00   0.1000000E+01   0.281666666666667E+04   0.538333333333333E+04   0.993866825103760E+01  1    1   56   37 4          1   0.9795418E+00   0.1000000E+01   0.1841630E+00   0.369795417838789E+04   0.450000000000000E+04  -0.151778883731682E+02 0
        164     1  2   0.000000000000000E+00   0.111544141484339E+05  1    1   47   29 6          1   0.1666667E+00   0.5000000E+00   0.1000000E+01   0.281666666666667E+04   0.535000000000000E+04   0.993866825103760E+01  1    1   56   37 4          1   0.6932108E+00   0.1000000E+01   0.1927165E+00   0.366932108043979E+04   0.450000000000000E+04  -0.149539217214332E+02 0
        165     1  2   0.000000000000000E+00   0.104079431594973E+05  1    1   47   29 6          1   0.1666667E+00   0.1666667E+00   0.1000000E+01   0.281666666666667E+04   0.531666666666667E+04   0.993866825103760E+01  1    1   56   37 4          1   0.1472536E+00   0.1000000E+01   0.2000096E+00   0.361472535845692E+04   0.450000000000000E+04  -0.147629604394889E+02 0
        166     1  2   0.000000000000000E+00   0.112845247935205E+05  1    1   47   29 6          1   0.5000000E+00   0.8333333E+00   0.1000000E+01   0.285000000000000E+04   0.538333333333333E+04   0.993866825103760E+01  1    1   55   38 1          1   0.0000000E+00   0.2270277E+00   0.2001884E+00   0.370000000000000E+04   0.452270277255083E+04  -0.147553629853856E+02 0
        167     1  2   0.000000000000000E+00   0.109328160666309E+05  1    1   47   29 6          1   0.5000000E+00   0.5000000E+00   0.1000000E+01   0.285000000000000E+04   0.535000000000000E+04   0.993866825103760E+01  1    1   56   37 4          1   0.9429822E+00   0.1000000E+01   0.2131607E+00   0.369429822230661E+04   0.450000000000000E+04  -0.144186136593362E+02 0
        168     1  2   0.000000000000000E+00   0.103197802157197E+05  1    1   47   29 6          1   0.5000000E+00   0.1666667E+00   0.1000000E+01   0.285000000000000E+04   0.531666666666667E+04   0.993866825103760E+01  1    1   56   37 4          1   0.6611375E+00   0.1000000E+01   0.2236217E+00   0.366611374726181E+04   0.450000000000000E+04  -0.141447024698835E+02 0
        169     1  2   0.000000000000000E+00   0.106916045199413E+05  1    1   47   29 6          1   0.8333333E+00   0.8333333E+00   0.1000000E+01   0.288333333333333E+04   0.538333333333333E+04   0.993866825103760E+01  1    1   55   38 1          1   0.0000000E+00   0.6271084E+00   0.2166893E+00   0.370000000000000E+04   0.456271083652430E+04  -0.143230632970410E+02 0
        170     1  2   0.000000000000000E+00   0.105011295380956E+05  1    1   47   29 6          1   0.8333333E+00   0.5000000E+00   0.1000000E+01   0.288333333333333E+04   0.535000000000000E+04   0.993866825103760E+01  1    1   55   38 1          1   0.0000000E+00   0.1531433E+00   0.2319985E+00   0.370000000000000E+04   0.451531432757845E+04  -0.139219847886015E+02 0
        171     1  2   0.000000000000000E+00   0.101222586267337E+05  1    1   47   29 6          1   0.8333333E+00   0.1666667E+00   0.1000000E+01   0.288333333333333E+04   0.531666666666667E+04   0.993866825103760E+01  1    1   56   37 4          1   0.9129062E+00   0.1000000E+01   0.2445952E+00   0.369129061695947E+04   0.450000000000000E+04  -0.135955339062436E+02 0
        172     1  2   0.000000000000000E+00   0.102275369880081E+05  1    1   48   29 6          1   0.1666667E+00   0.8333333E+00   0.1000000E+01   0.281666666666667E+04   0.528333333333333E+04   0.983246898651123E+01  1    1   56   37 1          1   0.0000000E+00   0.3902666E+00   0.2154859E+00   0.360000000000000E+04   0.443902665806777E+04  -0.143577299446571E+02 0
        173     1  2   0.000000000000000E+00   0.100350832632327E+05  1    1   48   29 6          1   0.1666667E+00   0.5000000E+00   0.1000000E+01   0.281666666666667E+04   0.525000000000000E+04   0.983246898651123E+01  1    1   56   37 1          1   0.0000000E+00   0.5900712E-01   0.2360283E+00   0.360000000000000E+04   0.440590071223291E+04  -0.138198490515839E+02 0
        174     1  2   0.000000000000000E+00   0.964562592079084E+04  1    1   48   29 6          1   0.1666667E+00   0.1666667E+00   0.1000000E+01   0.281666666666667E+04   0.521666666666667E+04   0.983246898651123E+01  1    1   57   36 4          1   0.8972509E+00   0.1000000E+01   0.2554946E+00   0.358972508674558E+04   0.440000000000000E+04  -0.133288075342899E+02 0
        175     1  2   0.000000000000000E+00   0.962207023907582E+04  1    1   48   29 6          1   0.5000000E+00   0.8333333E+00   0.1000000E+01   0.285000000000000E+04   0.528333333333333E+04   0.983246898651123E+01  1    1   56   37 4          1   0.1206632E+00   0.1000000E+01   0.2332783E+00   0.361206631891164E+04   0.450000000000000E+04  -0.138918542891976E+02 0
        176     1  2   0.000000000000000E+00   0.948783144668106E+04  1    1   48   29 6          1   0.5000000E+00   0.5000000E+00   0.1000000E+01   0.285000000000000E+04   0.525000000000000E+04   0.983246898651123E+01  1    1   56   37 1          1   0.0000000E+00   0.3975746E+00   0.2476188E+00   0.360000000000000E+04   0.443975746203536E+04  -0.135163653550469E+02 0
        177     1  2   0.000000000000000E+00   0.931182401137990E+04  1    1   48   29 6          1   0.5000000E+00   0.1666667E+00   0.1000000E+01   0.285000000000000E+04   0.521666666666667E+04   0.983246898651123E+01  1    1   56   37 1          1   0.0000000E+00   0.7861369E-01   0.2684609E+00   0.360000000000000E+04   0.440786136901099E+04  -0.129706367994230E+02 0
        178     1  2   0.000000000000000E+00   0.954892282737689E+04  1    1   48   29 6          1   0.8333333E+00   0.8333333E+00   0.1000000E+01   0.288333333333333E+04   0.528333333333333E+04   0.983246898651123E+01  1    1   56   37 4          1   0.6283759E+00   0.1000000E+01   0.2565027E+00   0.366283759016156E+04   0.450000000000000E+04  -0.132837494462211E+02 0
        179     1  2   0.000000000000000E+00   0.889069790831778E+04  1    1   48   29 6          1   0.8333333E+00   0.5000000E+00   0.1000000E+01   0.288333333333333E+04   0.525000000000000E+04   0.983246898651123E+01  1    1   56   37 4          1   0.8719271E-01   0.1000000E+01   0.2685085E+00   0.360871927147302E+04   0.450000000000000E+04  -0.129693900047158E+02 0
        180     1  2   0.000000000000000E+00   0.879124417146490E+04  1    1   48   29 6          1   0.8333333E+00   0.1666667E+00   0.1000000E+01   0.288333333333333E+04   0.521666666666667E+04   0.983246898651123E+01  1    1   56   37 1          1   0.0000000E+00   0.4076572E+00   0.2818304E+00   0.360000000000000E+04   0.444076571894844E+04  -0.126205708582752E+02 0
        181     1  2   0.000000000000000E+00   0.921146730546625E+04  1    1   49   29 6          1   0.1666667E+00   0.8333333E+00   0.1000000E+01   0.281666666666667E+04   0.518333333333333E+04   0.970247459411621E+01  1    1   57   36 4          1   0.7077521E+00   0.1000000E+01   0.2719467E+00   0.357077521323861E+04   0.440000000000000E+04  -0.128992305321705E+02 0
        182     1  2   0.000000000000000E+00   0.878466931296040E+04  1    1   49   29 6          1   0.1666667E+00   0.5000000E+00   0.1000000E+01   0.281666666666667E+04   0.515000000000000E+04   0.970247459411621E+01  1    1   57   36 4          1   0.4080492E+00   0.1000000E+01   0.2825780E+00   0.354080492169077E+04   0.440000000000000E+04  -0.126216365253986E+02 0
        183     1  2   0.000000000000000E+00   0.838525530165147E+04  1    1   49   29 6          1   0.1666667E+00   0.1666667E+00   0.1000000E+01   0.281666666666667E+04   0.511666666666667E+04   0.970247459411621E+01  1    1   57   36 1          1   0.0000000E+00   0.9471363E+00   0.2932540E+00   0.350000000000000E+04   0.439471363003806E+04  -0.123428776258794E+02 0
        184     1  2   0.000000000000000E+00   0.897651289216327E+04  1    1   49   29 6          1   0.5000000E+00   0.8333333E+00   0.1000000E+01   0.285000000000000E+04   0.518333333333333E+04   0.970247459411621E+01  1    1   57   36 4          1   0.9166348E+00   0.1000000E+01   0.2891770E+00   0.359166348351943E+04   0.440000000000000E+04  -0.124493317983507E+02 0
        185     1  2   0.000000000000000E+00   0.857448870002282E+04  1    1   49   29 6          1   0.5000000E+00   0.5000000E+00   0.1000000E+01   0.285000000000000E+04   0.515000000000000E+04   0.970247459411621E+01  1    1   57   36 4          1   0.7454324E+00   0.1000000E+01   0.3087453E+00   0.357454323746183E+04   0.440000000000000E+04  -0.119383845306183E+02 0
        186     1  2   0.000000000000000E+00   0.817691525644405E+04  1    1   49   29 6          1   0.5000000E+00   0.1666667E+00   0.1000000E+01   0.285000000000000E+04   0.511666666666667E+04   0.970247459411621E+01  1    1   57   36 4          1   0.4907196E+00   0.1000000E+01   0.3209839E+00   0.354907195682542E+04   0.440000000000000E+04  -0.116188254695812E+02 0
        187     1  2   0.000000000000000E+00   0.864068887644297E+04  1    1   49   29 6          1   0.8333333E+00   0.8333333E+00   0.1000000E+01   0.288333333333333E+04   0.518333333333333E+04   0.970247459411621E+01  1    1   56   37 1          1   0.0000000E+00   0.9381542E-01   0.3026919E+00   0.360000000000000E+04   0.440938154224615E+04  -0.120743323386169E+02 0
        188     1  2   0.000000000000000E+00   0.835069378448376E+04  1    1   49   29 6          1   0.8333333E+00   0.5000000E+00   0.1000000E+01   0.288333333333333E+04   0.515000000000000E+04   0.970247459411621E+01  1    1   57   36 4          1   0.9312504E+00   0.1000000E+01   0.3243611E+00   0.359312504000502E+04   0.440000000000000E+04  -0.115306427207788E+02 0
        189     1  2   0.000000000000000E+00   0.797162717654591E+04  1    1   49   29 6          1   0.8333333E+00   0.1666667E+00   0.1000000E+01   0.288333333333333E+04   0.511666666666667E+04   0.970247459411621E+01  1    1   57   36 4          1   0.7777820E+00   0.1000000E+01   0.3474932E+00   0.357777819758414E+04   0.440000000000000E+04  -0.109266416729092E+02 0
        190     1  2   0.000000000000000E+00   0.827243886462570E+04  1    1   50   29 6          1   0.1666667E+00   0.8333333E+00   0.1000000E+01   0.281666666666667E+04   0.508333333333333E+04   0.954848384857178E+01  1    1   57   36 1          1   0.0000000E+00   0.6151298E+00   0.3015561E+00   0.350000000000000E+04   0.436151298011676E+04  -0.121261002514167E+02 0
        191     1  2   0.000000000000000E+00   0.817602201656035E+04  1    1   50   29 6          1   0.1666667E+00   0.5000000E+00   0.1000000E+01   0.281666666666667E+04   0.505000000000000E+04   0.954848384857178E+01  1    1   57   36 1          1   0.0000000E+00   0.2759206E+00   0.3084313E+00   0.350000000000000E+04   0.432759206234280E+04  -0.119465843578527E+02 0
        192     1  2   0.000000000000000E+00   0.884243961150878E+04  1    1   50   29 6          1   0.1666667E+00   0.1666667E+00   0.1000000E+01   0.281666666666667E+04   0.501666666666667E+04   0.954848384857178E+01  1    1   57   36 3          1   0.1837168E+00   0.0000000E+00   0.3071290E+00   0.351837168227207E+04   0.430000000000000E+04  -0.119805889104861E+02 0
        193     1  2   0.000000000000000E+00   0.776344708169812E+04  1    1   50   29 6          1   0.5000000E+00   0.8333333E+00   0.1000000E+01   0.285000000000000E+04   0.508333333333333E+04   0.954848384857178E+01  1    1   57   36 4          1   0.6549011E-01   0.1000000E+01   0.3333063E+00   0.350654901117078E+04   0.440000000000000E+04  -0.112970741783203E+02 0
        194     1  2   0.000000000000000E+00   0.762770459452833E+04  1    1   50   29 6          1   0.5000000E+00   0.5000000E+00   0.1000000E+01   0.285000000000000E+04   0.505000000000000E+04   0.954848384857178E+01  1    1   57   36 1          1   0.0000000E+00   0.7158585E+00   0.3413632E+00   0.350000000000000E+04   0.437158584981081E+04  -0.110867035572585E+02 0
        195     1  2   0.000000000000000E+00   0.753563414293752E+04  1    1   50   29 6          1   0.5000000E+00   0.1666667E+00   0.1000000E+01   0.285000000000000E+04   0.501666666666667E+04   0.954848384857178E+01  1    1   57   36 1          1   0.0000000E+00   0.3957682E+00   0.3480831E+00   0.350000000000000E+04   0.433957682032344E+04  -0.109112391348604E+02 0
        196     1  2   0.000000000000000E+00   0.760341404944803E+04  1    1   50   29 6          1   0.8333333E+00   0.8333333E+00   0.1000000E+01   0.288333333333333E+04   0.508333333333333E+04   0.954848384857178E+01  1    1   57   36 4          1   0.5509921E+00   0.1000000E+01   0.3606916E+00   0.355509921361741E+04   0.440000000000000E+04  -0.105820215555720E+02 0
        197     1  2   0.000000000000000E+00   0.722347552928436E+04  1    1   50   29 6          1   0.8333333E+00   0.5000000E+00   0.1000000E+01   0.288333333333333E+04   0.505000000000000E+04   0.954848384857178E+01  1    1   57   36 4          1   0.1834450E+00   0.1000000E+01   0.3741189E+00   0.351834449643785E+04   0.440000000000000E+04  -0.102314208557773E+02 0
        198     1  2   0.000000000000000E+00   0.702032446839952E+04  1    1   50   29 6          1   0.8333333E+00   0.1666667E+00   0.1000000E+01   0.288333333333333E+04   0.501666666666667E+04   0.954848384857178E+01  1    1   57   36 1          1   0.0000000E+00   0.8036748E+00   0.3838138E+00   0.350000000000000E+04   0.438036748491371E+04  -0.997827879226019E+01 0
        199     1  2   0.000000000000000E+00   0.102109264294893E+05  1    1   51   29 6          1   0.1666667E+00   0.8333333E+00   0.1000000E+01   0.281666666666667E+04   0.498333333333333E+04   0.937217235565186E+01  1    1   57   36 3          1   0.2485515E+00   0.0000000E+00   0.3050190E+00   0.352485515095047E+04   0.430000000000000E+04  -0.120356831761102E+02 0
        200     1  2   0.000000000000000E+00   0.101610285024967E+05  1    1   51   29 6          1   0.1666667E+00   0.5000000E+00   0.1000000E+01   0.281666666666667E+04   0.495000000000000E+04   0.937217235565186E+01  1    1   60   35 4          1   0.5952040E+00   0.1000000E+01   0.3156668E+00   0.345952039883042E+04   0.410000000000000E+04  -0.117913276830803E+02 0
        201     1  2   0.000000000000000E+00   0.980941946569037E+04  1    1   51   29 6          1   0.1666667E+00   0.1666667E+00   0.1000000E+01   0.281666666666667E+04   0.491666666666667E+04   0.937217235565186E+01  1    1   60   35 4          1   0.5946230E+00   0.1000000E+01   0.3281193E+00   0.345946229814762E+04   0.410000000000000E+04  -0.114675110277281E+02 0
        202     1  2   0.000000000000000E+00   0.745616745769506E+04  1    1   51   29 6          1   0.5000000E+00   0.8333333E+00   0.1000000E+01   0.285000000000000E+04   0.498333333333333E+04   0.937217235565186E+01  1    1   57   36 1          1   0.0000000E+00   0.7296807E-01   0.3536888E+00   0.350000000000000E+04   0.430729680686276E+04  -0.107648692074495E+02 0
        203     1  2   0.000000000000000E+00   0.917976870858942E+04  1    1   51   29 6          1   0.5000000E+00   0.5000000E+00   0.1000000E+01   0.285000000000000E+04   0.495000000000000E+04   0.937217235565186E+01  1    1   57   36 3          1   0.2421615E+00   0.0000000E+00   0.3331303E+00   0.352421614750424E+04   0.430000000000000E+04  -0.113016706708390E+02 0
        204     1  2   0.000000000000000E+00   0.978357921690856E+04  1    1   51   29 6          1   0.5000000E+00   0.1666667E+00   0.1000000E+01   0.285000000000000E+04   0.491666666666667E+04   0.937217235565186E+01  1    1   57   36 3          1   0.2510991E+00   0.0000000E+00   0.3328583E+00   0.352510991154837E+04   0.430000000000000E+04  -0.113087723062672E+02 0
        205     1  2   0.000000000000000E+00   0.693597013875657E+04  1    1   51   29 6          1   0.8333333E+00   0.8333333E+00   0.1000000E+01   0.288333333333333E+04   0.498333333333333E+04   0.937217235565186E+01  1    1   57   36 1          1   0.0000000E+00   0.4986787E+00   0.3901741E+00   0.350000000000000E+04   0.434986786731926E+04  -0.981220721119470E+01 0
        206     1  2   0.000000000000000E+00   0.686003267178715E+04  1    1   51   29 6          1   0.8333333E+00   0.5000000E+00   0.1000000E+01   0.288333333333333E+04   0.495000000000000E+04   0.937217235565186E+01  1    1   57   36 1          1   0.0000000E+00   0.1914509E+00   0.3956007E+00   0.350000000000000E+04   0.431914509150377E+04  -0.967051366386704E+01 0
        207     1  2   0.000000000000000E+00   0.794559055059068E+04  1    1   51   29 6          1   0.8333333E+00   0.1666667E+00   0.1000000E+01   0.288333333333333E+04   0.491666666666667E+04   0.937217235565186E+01  1    1   57   36 3          1   0.2182242E+00   0.0000000E+00   0.3727729E+00   0.352182241921780E+04   0.430000000000000E+04  -0.102665681802399E+02 0
        208     1  2   0.000000000000000E+00   0.102688332502493E+05  1    1   47   30 6          1   0.1666667E+00   0.8333333E+00   0.1000000E+01   0.291666666666667E+04   0.538333333333333E+04   0.981814670562744E+01  1    1   55   38 4          1   0.2213685E+00   0.1000000E+01   0.2367472E+00   0.372213684937214E+04   0.460000000000000E+04  -0.137975766462487E+02 0
        209     1  2   0.000000000000000E+00   0.997080323458618E+04  1    1   47   30 6          1   0.1666667E+00   0.5000000E+00   0.1000000E+01   0.291666666666667E+04   0.535000000000000E+04   0.981814670562744E+01  1    1   55   38 1          1   0.0000000E+00   0.4851552E+00   0.2511477E+00   0.370000000000000E+04   0.454851551621384E+04  -0.134203048859741E+02 0
        210     1  2   0.000000000000000E+00   0.977043112679848E+04  1    1   47   30 6          1   0.1666667E+00   0.1666667E+00   0.1000000E+01   0.291666666666667E+04   0.531666666666667E+04   0.981814670562744E+01  1    1   55   38 1          1   0.0000000E+00   0.1054877E+00   0.2650844E+00   0.370000000000000E+04   0.451054877435946E+04  -0.130551860758274E+02 0
        211     1  2   0.000000000000000E+00   0.101176269958409E+05  1    1   47   30 6          1   0.5000000E+00   0.8333333E+00   0.1000000E+01   0.295000000000000E+04   0.538333333333333E+04   0.981814670562744E+01  1    1   55   38 4          1   0.5899884E+00   0.1000000E+01   0.2582876E+00   0.375899884053324E+04   0.460000000000000E+04  -0.132332498242230E+02 0
        212     1  2   0.000000000000000E+00   0.942869457777231E+04  1    1   47   30 6          1   0.5000000E+00   0.5000000E+00   0.1000000E+01   0.295000000000000E+04   0.535000000000000E+04   0.981814670562744E+01  1    1   55   38 4          1   0.5673539E-01   0.1000000E+01   0.2725580E+00   0.370567353935296E+04   0.460000000000000E+04  -0.128593881894148E+02 0
        213     1  2   0.000000000000000E+00   0.928865124886873E+04  1    1   47   30 6          1   0.5000000E+00   0.1666667E+00   0.1000000E+01   0.295000000000000E+04   0.531666666666667E+04   0.981814670562744E+01  1    1   55   38 1          1   0.0000000E+00   0.3946367E+00   0.2865866E+00   0.370000000000000E+04   0.453946367244800E+04  -0.124918584192431E+02 0
        214     1  2   0.000000000000000E+00   0.991142800026329E+04  1    1   47   30 6          1   0.8333333E+00   0.8333333E+00   0.1000000E+01   0.298333333333333E+04   0.538333333333333E+04   0.981814670562744E+01  1    1   55   38 4          1   0.8308992E+00   0.1000000E+01   0.2790264E+00   0.378308992246838E+04   0.460000000000000E+04  -0.126899264875033E+02 0
        215     1  2   0.000000000000000E+00   0.931555612879324E+04  1    1   47   30 6          1   0.8333333E+00   0.5000000E+00   0.1000000E+01   0.298333333333333E+04   0.535000000000000E+04   0.981814670562744E+01  1    1   55   38 4          1   0.4674316E+00   0.1000000E+01   0.2945736E+00   0.374674316071900E+04   0.460000000000000E+04  -0.122826111266221E+02 0
        216     1  2   0.000000000000000E+00   0.874751954680505E+04  1    1   47   30 6          1   0.8333333E+00   0.1666667E+00   0.1000000E+01   0.298333333333333E+04   0.531666666666667E+04   0.981814670562744E+01  1    1   55   38 1          1   0.0000000E+00   0.8703770E+00   0.3109266E+00   0.370000000000000E+04   0.458703770484199E+04  -0.118541880475307E+02 0
        217     1  2   0.000000000000000E+00   0.938446719123120E+04  1    1   48   30 6          1   0.1666667E+00   0.8333333E+00   0.1000000E+01   0.291666666666667E+04   0.528333333333333E+04   0.970619487762451E+01  1    1   56   37 4          1   0.8872781E+00   0.1000000E+01   0.2776507E+00   0.368872780876550E+04   0.450000000000000E+04  -0.127300100411846E+02 0
        218     1  2   0.000000000000000E+00   0.884560343518261E+04  1    1   48   30 6          1   0.1666667E+00   0.5000000E+00   0.1000000E+01   0.291666666666667E+04   0.525000000000000E+04   0.970619487762451E+01  1    1   56   37 4          1   0.6007516E+00   0.1000000E+01   0.2910119E+00   0.366007516167583E+04   0.450000000000000E+04  -0.123801611951733E+02 0
        219     1  2   0.000000000000000E+00   0.822173421749457E+04  1    1   48   30 6          1   0.1666667E+00   0.1666667E+00   0.1000000E+01   0.291666666666667E+04   0.521666666666667E+04   0.970619487762451E+01  1    1   56   37 4          1   0.7762645E-01   0.1000000E+01   0.3058632E+00   0.360776264487036E+04   0.450000000000000E+04  -0.119912967665701E+02 0
        220     1  2   0.000000000000000E+00   0.910050448848651E+04  1    1   48   30 6          1   0.5000000E+00   0.8333333E+00   0.1000000E+01   0.295000000000000E+04   0.528333333333333E+04   0.970619487762451E+01  1    1   55   38 1          1   0.0000000E+00   0.6917132E-01   0.2990991E+00   0.370000000000000E+04   0.450691713153549E+04  -0.121640516276488E+02 0
        221     1  2   0.000000000000000E+00   0.870962184197331E+04  1    1   48   30 6          1   0.5000000E+00   0.5000000E+00   0.1000000E+01   0.295000000000000E+04   0.525000000000000E+04   0.970619487762451E+01  1    1   56   37 4          1   0.8645745E+00   0.1000000E+01   0.3121696E+00   0.368645745153583E+04   0.450000000000000E+04  -0.118261710272640E+02 0
        222     1  2   0.000000000000000E+00   0.819713490299964E+04  1    1   48   30 6          1   0.5000000E+00   0.1666667E+00   0.1000000E+01   0.295000000000000E+04   0.521666666666667E+04   0.970619487762451E+01  1    1   56   37 4          1   0.5845364E+00   0.1000000E+01   0.3274982E+00   0.365845363890587E+04   0.450000000000000E+04  -0.114248075825065E+02 0
        223     1  2   0.000000000000000E+00   0.865408480013081E+04  1    1   48   30 6          1   0.8333333E+00   0.8333333E+00   0.1000000E+01   0.298333333333333E+04   0.528333333333333E+04   0.970619487762451E+01  1    1   55   38 1          1   0.0000000E+00   0.3188147E+00   0.3229760E+00   0.370000000000000E+04   0.453188147322627E+04  -0.115385102936541E+02 0
        224     1  2   0.000000000000000E+00   0.847831900000749E+04  1    1   48   30 6          1   0.8333333E+00   0.5000000E+00   0.1000000E+01   0.298333333333333E+04   0.525000000000000E+04   0.970619487762451E+01  1    1   55   38 1          1   0.0000000E+00   0.3566902E-01   0.3342817E+00   0.370000000000000E+04   0.450356690178930E+04  -0.112423179103708E+02 0
        225     1  2   0.000000000000000E+00   0.807325684982279E+04  1    1   48   30 6          1   0.8333333E+00   0.1666667E+00   0.1000000E+01   0.298333333333333E+04   0.521666666666667E+04   0.970619487762451E+01  1    1   56   37 4          1   0.8443516E+00   0.1000000E+01   0.3488802E+00   0.368443516316416E+04   0.450000000000000E+04  -0.108649420008148E+02 0
        226     1  2   0.000000000000000E+00   0.814792583588163E+04  1    1   49   30 6          1   0.1666667E+00   0.8333333E+00   0.1000000E+01   0.291666666666667E+04   0.518333333333333E+04   0.957042598724365E+01  1    1   56   37 1          1   0.0000000E+00   0.4203048E+00   0.3174223E+00   0.360000000000000E+04   0.444203047917315E+04  -0.116886334360671E+02 0
        227     1  2   0.000000000000000E+00   0.802082930912055E+04  1    1   49   30 6          1   0.1666667E+00   0.5000000E+00   0.1000000E+01   0.291666666666667E+04   0.515000000000000E+04   0.957042598724365E+01  1    1   56   37 1          1   0.0000000E+00   0.1098191E+00   0.3382071E+00   0.360000000000000E+04   0.441098190674837E+04  -0.111444049184752E+02 0
        228     1  2   0.000000000000000E+00   0.776842256621495E+04  1    1   49   30 6          1   0.1666667E+00   0.1666667E+00   0.1000000E+01   0.291666666666667E+04   0.511666666666667E+04   0.957042598724365E+01  1    1   57   36 4          1   0.9475984E+00   0.1000000E+01   0.3606826E+00   0.359475984436218E+04   0.440000000000000E+04  -0.105822550232683E+02 0
        229     1  2   0.000000000000000E+00   0.760790689016674E+04  1    1   49   30 6          1   0.5000000E+00   0.8333333E+00   0.1000000E+01   0.295000000000000E+04   0.518333333333333E+04   0.957042598724365E+01  1    1   56   37 4          1   0.7564095E-01   0.1000000E+01   0.3447228E+00   0.360756409456027E+04   0.450000000000000E+04  -0.109737987838940E+02 0
        230     1  2   0.000000000000000E+00   0.755128972882615E+04  1    1   49   30 6          1   0.5000000E+00   0.5000000E+00   0.1000000E+01   0.295000000000000E+04   0.515000000000000E+04   0.957042598724365E+01  1    1   56   37 1          1   0.0000000E+00   0.4368622E+00   0.3543279E+00   0.360000000000000E+04   0.444368622295007E+04  -0.107223000346463E+02 0
        231     1  2   0.000000000000000E+00   0.743640929919749E+04  1    1   49   30 6          1   0.5000000E+00   0.1666667E+00   0.1000000E+01   0.295000000000000E+04   0.511666666666667E+04   0.957042598724365E+01  1    1   56   37 1          1   0.0000000E+00   0.1322291E+00   0.3752579E+00   0.360000000000000E+04   0.441322290723429E+04  -0.101742704078925E+02 0
        232     1  2   0.000000000000000E+00   0.758794679498552E+04  1    1   49   30 6          1   0.8333333E+00   0.8333333E+00   0.1000000E+01   0.298333333333333E+04   0.518333333333333E+04   0.957042598724365E+01  1    1   56   37 4          1   0.5663572E+00   0.1000000E+01   0.3658481E+00   0.365663571737035E+04   0.450000000000000E+04  -0.104206546368005E+02 0
        233     1  2   0.000000000000000E+00   0.703040308716964E+04  1    1   49   30 6          1   0.8333333E+00   0.5000000E+00   0.1000000E+01   0.298333333333333E+04   0.515000000000000E+04   0.957042598724365E+01  1    1   56   37 4          1   0.6967440E-01   0.1000000E+01   0.3853815E+00   0.360696744048111E+04   0.450000000000000E+04  -0.990919321482183E+01 0
        234     1  2   0.000000000000000E+00   0.698238742012235E+04  1    1   49   30 6          1   0.8333333E+00   0.1666667E+00   0.1000000E+01   0.298333333333333E+04   0.511666666666667E+04   0.957042598724365E+01  1    1   56   37 1          1   0.0000000E+00   0.4571254E+00   0.3932802E+00   0.360000000000000E+04   0.444571253648986E+04  -0.970237386589396E+01 0
